   Input file: /Users/mneveu/eclipse-workspace/ExoCcycleGeo/ExoCcycleGeo/PHREEQC-3.1.2/io/ContWeather.txtExec.txt
  Output file: /Users/mneveu/eclipse-workspace/ExoCcycleGeo/ExoCcycleGeo/PHREEQC-3.1.2/io/ContWeather.txtExec.txt.out
Database file: /Users/mneveu/eclipse-workspace/ExoCcycleGeo/ExoCcycleGeo/PHREEQC-3.1.2/core11_idealgas.dat

------------------
Reading data base.
------------------

	LLNL_AQUEOUS_MODEL_PARAMETERS
	SOLUTION_MASTER_SPECIES
	SOLUTION_SPECIES
	PHASES
	RATES
	END
------------------------------------
Reading input data for simulation 1.
------------------------------------

	TITLE Kinetics of continental crust weathering, avg. molar mass 141.9 g/mol <-- this number is ExoCcycleGeo input
	PHASES
	Bytownite # 70-90% Anor, 10-30% Alb # Params for Anorthite, part of Anorthite input in this phase to average kinetics
		CaAl2(SiO4)2 + 8 H+ = Ca+2 + 2 Al+3 + 2 SiO2 + 4 H2O
		log_k		26.5780
		delta_h	-303.039	kJ/mol
		analytical_expression	3.9717e-1 -1.8751e-2 1.4897e4 -6.3078 -2.3885e5
		vm		100.79
	RATES # Redefining rates for plagioclase to use rates for non-Na-Ca end-members, otherwise there is too much Ca and not enough Na weathered in Earth benchmark.
	Anorthite # Using the rate law for Labradorite: 50-70% Anor, 30-50% Alb
		start
		1   REM Ref PK04
		10  kacid = 10^(-7.87) * exp(-42.1e3/8.314 * (1/TK-1/298.15)) * ACT("H+")^0.626
		20  kneut = 10^(-10.91) * exp(-45.2e3/8.314 * (1/TK-1/298.15))
		40  k = kacid + kneut
		50  rate = k * (1 - SR("Anorthite"))
		60  moles = rate * TIME
		70  SAVE moles
		end
	Bytownite # 70-90% Anor, 10-30% Alb
		start
		1   REM Ref PK04
		10  kacid = 10^(-5.85) * exp(-29.3e3/8.314 * (1/TK-1/298.15)) * ACT("H+")^1.018
		20  kneut = 10^(-9.82) * exp(-31.5e3/8.314 * (1/TK-1/298.15))
		40  k = kacid + kneut
		50  rate = k * (1 - SR("Bytownite"))
		60  moles = rate * TIME
		70  SAVE moles
		end
	Annite # Assuming kinetics are the same as for the Mg-end-member phlogopite
		start
		1   REM Ref PK04 for phlogopite
		20  kneut = 10^(-12.40) * exp(-29.0e3/8.314 * (1/TK-1/298.15))
		40  k = kneut
		50  rate = k * (1 - SR("Annite"))
		60  moles = rate * TIME
		70  SAVE moles
		end
	Daphnite-14A # Assuming kinetics are the same as for Clinochlore-14A (Mg,Fe)5Al(Si3Al)O10(OH)8
		start
		1   REM Ref PK04 for chlorite
		10  kacid = 10^(-11.11) * exp(-88.0e3/8.314 * (1/TK-1/298.15)) * ACT("H+")^0.5
		20  kneut = 10^(-12.52) * exp(-88.0e3/8.314 * (1/TK-1/298.15))
		40  k = kacid + kneut
		50  rate = k * (1 - SR("Daphnite-14A"))
		60  moles = rate * TIME
		70  SAVE moles
		end
	END
-----
TITLE
-----

 Kinetics of continental crust weathering, avg. molar mass 141.9 g/mol <-- this number is ExoCcycleGeo input

------------------
End of simulation.
------------------

------------------------------------
Reading input data for simulation 2.
------------------------------------

	KINETICS # Initial abundances scaled to 1 mol air
	SiO2(am) # Precipitation only, see PK04 for dissolution rates
		formula	SiO2			1
		m		0
		m0		0
		tol		1e-8
	Albite
		formula	NaAlSi3O8		1
		m		1.9e-2 # moles                   <------
		m0		1.9e-2
		tol		1e-8
	Anorthite # Part of input, other part in Bytownite
		formula	CaAl2(SiO4)2		1
		m		5.28e-2 # moles                   <------
		m0		5.28e-2 # 6.0 if Bytownite used
		tol		1e-8
	Bytownite # Other part of Anorthite input
		formula	CaAl2(SiO4)2		1
		m		0.72e-2 # moles                   <------
		m0		0.72e-2
		tol		1e-8
	K-Feldspar
		formula	KAlSi3O8		1
		m		0
		m0		0
		tol		1e-8
	Nepheline
		formula	NaAlSiO4		1
		m		0
		m0		0
		tol		1e-8
	Forsterite
		formula	Mg2SiO4			1
		m		6.9e-1 # moles                   <------
		m0		6.9e-1
		tol		1e-8
	Fayalite
		formula	Fe2SiO4			1
		m		9.6e-2 # moles                   <------
		m0		9.6e-2
		tol		1e-8
	Grossular
		formula	Ca3Al2(SiO4)3		1
		m		0
		m0		0
		tol		1e-8
	Andradite
		formula	Ca3Fe2(SiO4)3		1
		m		0
		m0		0
		tol		1e-8
	Kyanite
		formula	Al2SiO5			1
		m		0
		m0		0
		tol		1e-8
	Epidote
		formula	Ca2FeAl2Si3O12OH	1
		m		0
		m0		0
		tol		1e-8
	Zoisite
		formula	Ca2Al3(SiO4)3OH		1
		m		0
		m0		0
		tol		1e-8
	Cordierite_anhyd
		formula	Mg2Al4Si5O18		1
		m		0
		m0		0
		tol		1e-8
	Diopside
		formula	CaMgSi2O6		1
		m		0
		m0		0
		tol		1e-8
	Enstatite
		formula	MgSiO3			1
		m		3.5e-1 # moles                   <------
		m0		3.5e-1
		tol		1e-8
	Jadeite
		formula	NaAl(SiO3)2		1
		m		0
		m0		0
		tol		1e-8
	Wollastonite
		formula	CaSiO3			1
		m		4.0e-2 # moles                   <------
		m0		4.0e-2
		tol		1e-8
	Anthophyllite
		formula	Mg7Si8O22(OH)2		1
		m		0
		m0		0
		tol		1e-8
	Riebeckite
		formula	Na2Fe5Si8O22(OH)2	1
		m		0
		m0		0
		tol		1e-8
	Tremolite
		formula	Ca2Mg5Si8O22(OH)2	1
		m		0
		m0		0
		tol		1e-8
	Muscovite
		formula	KAl3Si3O10(OH)2		1
		m		0
		m0		0
		tol		1e-8
	Paragonite
		formula	NaAl3Si3O10(OH)2	1
		m		0
		m0		0
		tol		1e-8
	Phlogopite
		formula	KAlMg3Si3O10(OH)2	1
		m		0
		m0		0
		tol		1e-8
	Annite # Kinetics are those of phlogopite
		formula	KFe3AlSi3O10(OH)2	1
		m		0
		m0		0
		tol		1e-8
	Pyrophyllite
		formula	Al2Si4O10(OH)2		1
		m		0
		m0		0
		tol		1e-8
	Kaolinite
		formula	Al2Si2O5(OH)4		1
		m		0
		m0		0
		tol		1e-8
	Montmor-K
		formula	K.35Mg.35Al1.65Si4O10(OH)2	1
		m		0
		m0		0
		tol		1e-8
	Smectite-low-Fe-Mg
		formula	Ca.02Na.15K.2Fe.29Fe.16Mg.9Al1.25Si3.75H2O12	1
		m		0
		m0		0
		tol		1e-8
	Lizardite
		formula	Mg3Si2O5(OH)4		1
		m		0
		m0		0
		tol		1e-8
	Chrysotile
		formula	Mg3Si2O5(OH)4		1
		m		0
		m0		0
		tol		1e-8
	Clinochlore-14A
		formula	Mg5AlAlSi3O10(OH)8	1
		m		0
		m0		0
		tol		1e-8
	Daphnite-14A # Kinetics are those of clinochlore
		formula	Fe5AlAlSi3O10(OH)8	1
		m		0
		m0		0
		tol		1e-8
	Talc
		formula	Mg3Si4O10(OH)2		1
		m		0
		m0		0
		tol		1e-8
	Prehnite
		formula	Ca2Al2Si3O10(OH)2	1
		m		0
		m0		0
		tol		1e-8
	Goethite
		formula	FeOOH			1
		m		0
		m0		0
		tol		1e-8
	Hematite
		formula	Fe2O3			1
		m		0
		m0		0
		tol		1e-8
	Magnetite
		formula	Fe3O4			1
		m		0
		m0		0
		tol		1e-8
	Brucite
		formula	Mg(OH)2			1
		m		0
		m0		0
		tol		1e-8
	Gibbsite
		formula	Al(OH)3			1
		m		0
		m0		0
		tol		1e-8
	Diaspore
		formula	AlHO2			1
		m		0
		m0		0
		tol		1e-8
	Calcite
		formula	CaCO3			1
		m		0
		m0		0
		tol		1e-8
	Dolomite-dis
		formula	CaMg(CO3)2		1
		m		0
		m0		0
		tol		1e-8
	Dolomite-ord
		formula	CaMg(CO3)2		1
		m		0
		m0		0
		tol		1e-8
	Magnesite
		formula	MgCO3			1
		m		0
		m0		0
		tol		1e-8
	Gypsum
		formula	CaSO4:2H2O		1
		m		0
		m0		0
		tol		1e-8
	Anhydrite
		formula	CaSO4		1
		m		0
		m0		0
		tol		1e-8
	Pyrite
		formula	FeS2		1
		m		2.7e-3 # moles                   <------
		m0		2.7e-3
		tol		1e-8
	Pyrrhotite
		formula	FeS		1
		m		0
		m0		0
		tol		1e-8
	Halite
		formula	NaCl		1
		m		3.0e-2 # moles                   <------
		m0		3.0e-2
		tol		1e-8
	steps	3.18732e+08 in 1000 steps
	cvode	true	
	INCREMENTAL_REACTIONS true
	SOLUTION 1 Rainwater
		pH 	 	7 charge
		temp 	 	29.8428
		pressure 	8.00214
		water 	 	709.924
		units		mol/kgw
		C(4) 		0.220315 mol/kgw	CO2(g) 	0.879616
		C(-4) 		2.07058e-19 mol/kgw	CH4(g) 	-15.8055
		Ntg 		0.000233769 mol/kgw	Ntg(g) 	-0.410127
		O(0) 		0 mol/kgw
		S		250.0e-6 as SO4-2  # Scaled from computed volcanic outgassing in Archean vs. abiotic modern (Berner et al. 1983)
	SELECTED_OUTPUT
		file		./BenchmarkAddMin.sel # Works only if PHREEQC called manually from Terminal as ./phreeqc
		state 		false	
		solution 	false
		distance 	false
		time 		true
		step 		true
		temperature	true
		ionic_strength	true
		water		true
		percent_error	true
		totals 	C Na Mg Si Ca Fe S Cl
		molalities 	HCO3- CO3-2 CO2 Na+ Mg+2 SiO2 Ca+2 Fe+2
		kinetic_reactants Quartz SiO2(am) Albite Anorthite K-Feldspar Nepheline Forsterite Fayalite Grossular Andradite Kyanite Epidote Zoisite Cordierite_anhyd Diopside Enstatite Jadeite Wollastonite Anthophyllite Riebeckite Tremolite Muscovite Paragonite Phlogopite Annite Pyrophyllite Kaolinite Montmor-K Smectite-low-Fe-Mg Lizardite Chrysotile Clinochlore-14A Daphnite-14A Talc Prehnite Goethite Hematite Magnetite Brucite Gibbsite Diaspore Calcite Dolomite-dis Dolomite-ord Magnesite Anhydrite Gypsum Pyrite Pyrrhotite Hydroxyapatite Halite
	END
-------------------------------------------
Beginning of initial solution calculations.
-------------------------------------------

Initial solution 1.	Rainwater

-----------------------------Solution composition------------------------------

	Elements           Molality       Moles

	C(-4)             2.049e-19   1.454e-16  Equilibrium with CH4(g)
	C(4)              2.273e-01   1.614e+02  Equilibrium with CO2(g)
	Ntg               2.415e-04   1.714e-01  Equilibrium with Ntg(g)
	S                 2.500e-04   1.775e-01

----------------------------Description of solution----------------------------

                                       pH  =   3.198      Charge balance
                                       pe  =   4.000    
                          Density (g/cm³)  =   0.99840
                               Volume (L)  = 718.20101
                        Activity of water  =   0.996
                           Ionic strength  =   8.890e-04
                       Mass of water (kg)  =   7.099e+02
                 Total alkalinity (eq/kg)  =  -5.000e-04
                       Total CO2 (mol/kg)  =   2.273e-01
                         Temperature (°C)  =  29.84
                           Pressure (atm)  =  8.00
                  Electrical balance (eq)  =  -1.665e-16
 Percent error, 100*(Cat-|An|)/(Cat+|An|)  =  -0.00
                               Iterations  =   7
                                  Total H  = 7.883812e+04
                                  Total O  = 3.974238e+04

---------------------------------Redox couples---------------------------------

	Redox couple             pe  Eh (volts)

	C(-4)/C(4)           1.7187      0.1033

----------------------------Distribution of species----------------------------

                                               Log       Log       Log    mole V
   Species          Molality    Activity  Molality  Activity     Gamma   cm³/mol

   H+              6.544e-04   6.335e-04    -3.184    -3.198    -0.014      0.00
   OH-             2.251e-11   2.175e-11   -10.648   -10.663    -0.015     -3.94
   H2O             5.553e+01   9.961e-01     1.744    -0.002     0.000     18.09
C(-4)         2.049e-19
   CH4             2.049e-19   2.049e-19   -18.689   -18.689     0.000     37.70
C(4)          2.273e-01
   CO2             2.272e-01   2.272e-01    -0.644    -0.644     0.000     33.59
   HCO3-           1.698e-04   1.642e-04    -3.770    -3.785    -0.015     24.84
   CO3-2           1.452e-11   1.268e-11   -10.838   -10.897    -0.059     -5.18
   HCOOH           4.512e-18   4.512e-18   -17.346   -17.346     0.000     35.03
   HCOO-           1.141e-18   1.103e-18   -17.943   -17.957    -0.015     26.17
   CH2O            5.748e-37   5.748e-37   -36.240   -36.240     0.000     27.26
   CH3OH           5.004e-40   5.004e-40   -39.301   -39.301     0.000     38.19
   CH3COOH         0.000e+00   0.000e+00   -41.650   -41.650     0.000     52.37
   CH3COO-         0.000e+00   0.000e+00   -43.211   -43.226    -0.015     40.51
   CH3CH2OH        0.000e+00   0.000e+00   -67.183   -67.183     0.000     55.09
   C3H8            0.000e+00   0.000e+00   -99.067   -99.067     0.000     66.01
H(0)          7.944e-18
   H2              3.972e-18   3.973e-18   -17.401   -17.401     0.000     25.52
Ntg           2.415e-04
   Ntg             2.415e-04   2.415e-04    -3.617    -3.617     0.000     29.29
O(0)         -5.653e-18
   HCOOH           4.512e-18   4.512e-18   -17.346   -17.346     0.000     35.03
   HCOO-           1.141e-18   1.103e-18   -17.943   -17.957    -0.015     26.17
   S2O6-2          6.982e-37   6.092e-37   -36.156   -36.215    -0.059     40.57
   CH2O            5.748e-37   5.748e-37   -36.240   -36.240     0.000     27.26
   CH3OH           5.004e-40   5.004e-40   -39.301   -39.301     0.000     38.19
   CH3COOH         0.000e+00   0.000e+00   -41.650   -41.650     0.000     52.37
   CH3COO-         0.000e+00   0.000e+00   -43.211   -43.226    -0.015     40.51
   S3O6-2          0.000e+00   0.000e+00   -55.376   -55.435    -0.059     42.09
   O2              0.000e+00   0.000e+00   -55.856   -55.856     0.000     30.75
   S4O6-2          0.000e+00   0.000e+00   -58.857   -58.916    -0.059     56.82
   CH3CH2OH        0.000e+00   0.000e+00   -67.183   -67.183     0.000     55.09
   S5O6-2          0.000e+00   0.000e+00   -90.928   -90.987    -0.059     45.72
   C3H8            0.000e+00   0.000e+00   -99.067   -99.067     0.000     66.01
S(-2)         5.233e-28
   H2S             5.232e-28   5.232e-28   -27.281   -27.281     0.000     37.17
   HS-             9.674e-32   9.349e-32   -31.014   -31.029    -0.015     20.79
   S2-2            0.000e+00   0.000e+00   -57.275   -57.335    -0.059     20.21
   S3-2            0.000e+00   0.000e+00   -74.034   -74.094    -0.059     29.28
   S4-2            0.000e+00   0.000e+00   -91.017   -91.077    -0.059     38.25
   S5-2            0.000e+00   0.000e+00  -108.213  -108.273    -0.059     47.22
S(2)          1.668e-33
   S2O3-2          8.338e-34   7.276e-34   -33.079   -33.138    -0.059     28.98
S(3)          0.000e+00
   S2O4-2          0.000e+00   0.000e+00   -46.245   -46.304    -0.059     28.89
S(4)          2.924e-18
   HSO3-           2.779e-18   2.686e-18   -17.556   -17.571    -0.015     39.57
   SO2             1.450e-19   1.450e-19   -18.839   -18.839     0.000     38.40
   SO3-2           2.701e-22   2.358e-22   -21.569   -21.627    -0.059     -3.24
   S2O6-2          6.982e-37   6.092e-37   -36.156   -36.215    -0.059     40.57
   S3O6-2          0.000e+00   0.000e+00   -55.376   -55.435    -0.059     42.09
   S4O6-2          0.000e+00   0.000e+00   -58.857   -58.916    -0.059     56.82
   S5O6-2          0.000e+00   0.000e+00   -90.928   -90.987    -0.059     45.72
S(5)          2.409e-40
   S2O5-2          1.205e-40   1.051e-40   -39.919   -39.978    -0.059     34.03
S(6)          2.500e-04
   SO4-2           2.346e-04   2.047e-04    -3.630    -3.689    -0.059     15.01
   HSO4-           1.544e-05   1.492e-05    -4.811    -4.826    -0.015     40.55
S(7)          0.000e+00
   S2O8-2          0.000e+00   0.000e+00   -63.555   -63.614    -0.059     79.44
S(8)          0.000e+00
   HSO5-           0.000e+00   0.000e+00   -51.669   -51.684    -0.015     50.66

------------------------------Saturation indices-------------------------------

  Phase               SI** log IAP   log K(302 K,   8 atm)

  [(6)(CB)(CB)S]  -25.17     37.02   62.19  S
  [(aro)-O-(aro)]  -7.62    -27.93  -20.31  O
  C               -14.17     48.87   63.05  C
  C3H8(g)         -96.16    -99.07   -2.91  C3H8
  CH4(g)          -15.81    -18.69   -2.88  CH4
  CO2(g)            0.88     -6.98   -7.86  CO2
  H2(g)           -14.29    -17.40   -3.11  H2
  H2O(g)           -1.46     -0.00    1.46  H2O
  H2S(g)          -26.24    -34.23   -7.98  H2S
  Ice              -0.16     -0.00    0.16  H2O
  KerogenC128    -2766.64   7821.2310587.87  C128H68O7
  KerogenC292    -6631.46  19808.3926439.85  C292H288O12
  KerogenC515    -12703.37  34745.8247449.19  C515H596O72
  Ntg(g)           -0.41     -3.62   -3.21  Ntg
  O2(g)           -52.93    -55.86   -2.93  O2
  S               -17.78    -62.15  -44.37  S
  SO2(g)          -18.94    -18.84    0.10  SO2

**For a gas, SI = log10(fugacity). Fugacity = pressure * phi / 1 atm.
  For ideal gases, phi = 1.

-----------------------------------------
Beginning of batch-reaction calculations.
-----------------------------------------

Reaction step 1.

WARNING: CVode incomplete at cvode_steps 100. Cell: 0	Time: 1.114711e+04	Cvode calls: 1, continuing...

Using solution 1.	Rainwater
Using kinetics 1.	

Kinetics 1.	

	Time step: 318732 seconds  (Incremented time: 318732 seconds)

	Rate name       Delta Moles Total Moles   Reactant        Coefficient

	SiO2(am)         -0.000e+00   0.000e+00   SiO2                      1
	Albite           -9.306e-07   1.900e-02   NaAlSi3O8                 1
	Anorthite        -3.785e-05   5.276e-02   CaAl2(SiO4)2              1
	Bytownite        -1.840e-04   7.016e-03   CaAl2(SiO4)2              1
	K-Feldspar       -0.000e+00   0.000e+00   KAlSi3O8                  1
	Nepheline        -0.000e+00   0.000e+00   NaAlSiO4                  1
	Forsterite       -1.461e-03   6.885e-01   Mg2SiO4                   1
	Fayalite         -9.600e-02   0.000e+00   Fe2SiO4                   1
	Grossular        -0.000e+00   0.000e+00   Ca3Al2(SiO4)3             1
	Andradite        -0.000e+00   0.000e+00   Ca3Fe2(SiO4)3             1
	Kyanite          -0.000e+00   0.000e+00   Al2SiO5                   1
	Epidote          -0.000e+00   0.000e+00   Ca2FeAl2Si3O12OH           1
	Zoisite          -0.000e+00   0.000e+00   Ca2Al3(SiO4)3OH           1
	Cordierite_anhyd  -0.000e+00   0.000e+00   Mg2Al4Si5O18              1
	Diopside         -0.000e+00   0.000e+00   CaMgSi2O6                 1
	Enstatite        -3.752e-06   3.500e-01   MgSiO3                    1
	Jadeite          -0.000e+00   0.000e+00   NaAl(SiO3)2               1
	Wollastonite     -4.000e-02   0.000e+00   CaSiO3                    1
	Anthophyllite    -0.000e+00   0.000e+00   Mg7Si8O22(OH)2            1
	Riebeckite       -0.000e+00   0.000e+00   Na2Fe5Si8O22(OH)2           1
	Tremolite        -0.000e+00   0.000e+00   Ca2Mg5Si8O22(OH)2           1
	Muscovite        -0.000e+00   0.000e+00   KAl3Si3O10(OH)2           1
	Paragonite       -0.000e+00   0.000e+00   NaAl3Si3O10(OH)2           1
	Phlogopite       -0.000e+00   0.000e+00   KAlMg3Si3O10(OH)2           1
	Annite           -0.000e+00   0.000e+00   KFe3AlSi3O10(OH)2           1
	Pyrophyllite     -0.000e+00   0.000e+00   Al2Si4O10(OH)2            1
	Kaolinite        -0.000e+00   0.000e+00   Al2Si2O5(OH)4             1
	Montmor-K        -0.000e+00   0.000e+00   K.35Mg.35Al1.65Si4O10(OH)2           1
	Smectite-low-Fe-Mg  -0.000e+00   0.000e+00   Ca.02Na.15K.2Fe.29Fe.16Mg.9Al1.25Si3.75H2O12           1
	Lizardite        -0.000e+00   0.000e+00   Mg3Si2O5(OH)4             1
	Chrysotile       -0.000e+00   0.000e+00   Mg3Si2O5(OH)4             1
	Clinochlore-14A  -0.000e+00   0.000e+00   Mg5AlAlSi3O10(OH)8           1
	Daphnite-14A     -0.000e+00   0.000e+00   Fe5AlAlSi3O10(OH)8           1
	Talc             -0.000e+00   0.000e+00   Mg3Si4O10(OH)2            1
	Prehnite         -0.000e+00   0.000e+00   Ca2Al2Si3O10(OH)2           1
	Goethite         -0.000e+00   0.000e+00   FeOOH                     1
	Hematite         -0.000e+00   0.000e+00   Fe2O3                     1
	Magnetite        -0.000e+00   0.000e+00   Fe3O4                     1
	Brucite          -0.000e+00   0.000e+00   Mg(OH)2                   1
	Gibbsite         -0.000e+00   0.000e+00   Al(OH)3                   1
	Diaspore         -0.000e+00   0.000e+00   AlHO2                     1
	Calcite          -0.000e+00   0.000e+00   CaCO3                     1
	Dolomite-dis     -0.000e+00   0.000e+00   CaMg(CO3)2                1
	Dolomite-ord     -0.000e+00   0.000e+00   CaMg(CO3)2                1
	Magnesite        -0.000e+00   0.000e+00   MgCO3                     1
	Gypsum           -0.000e+00   0.000e+00   CaSO4:2H2O                1
	Anhydrite        -0.000e+00   0.000e+00   CaSO4                     1
	Pyrite           -2.277e-08   2.700e-03   FeS2                      1
	Pyrrhotite       -0.000e+00   0.000e+00   FeS                       1
	Halite           -3.000e-02   0.000e+00   NaCl                      1

-----------------------------Solution composition------------------------------

	Elements           Molality       Moles

	Al                6.263e-07   4.447e-04
	C                 2.273e-01   1.614e+02
	Ca                5.666e-05   4.022e-02
	Cl                4.226e-05   3.000e-02
	Fe                2.705e-04   1.920e-01
	Mg                4.122e-06   2.927e-03
	Na                4.226e-05   3.000e-02
	Ntg               2.415e-04   1.714e-01
	S                 2.500e-04   1.775e-01
	Si                1.943e-04   1.379e-01

----------------------------Description of solution----------------------------

                                       pH  =   3.600      Charge balance
                                       pe  =   1.369      Adjusted to redox equilibrium
                          Density (g/cm³)  =   0.99844
                               Volume (L)  = 718.19782
                        Activity of water  =   0.996
                           Ionic strength  =   1.539e-03
                       Mass of water (kg)  =   7.099e+02
                 Total alkalinity (eq/kg)  =   1.643e-04
                       Total CO2 (mol/kg)  =   2.273e-01
                         Temperature (°C)  =  29.84
                           Pressure (atm)  =  8.00
                  Electrical balance (eq)  =   4.303e-12
 Percent error, 100*(Cat-|An|)/(Cat+|An|)  =   0.00
                               Iterations  = 4570
                                  Total H  = 7.883812e+04
                                  Total O  = 3.974290e+04

----------------------------Distribution of species----------------------------

                                               Log       Log       Log    mole V
   Species          Molality    Activity  Molality  Activity     Gamma   cm³/mol

   H+              2.619e-04   2.512e-04    -3.582    -3.600    -0.018      0.00
   OH-             5.735e-11   5.486e-11   -10.241   -10.261    -0.019     -3.93
   H2O             5.553e+01   9.961e-01     1.744    -0.002     0.000     18.09
Al            6.263e-07
   Al+3            5.963e-07   4.095e-07    -6.224    -6.388    -0.163    -42.47
   AlOH+2          2.999e-08   2.515e-08    -7.523    -7.599    -0.076    -27.85
   HAlO2           2.458e-12   2.458e-12   -11.609   -11.609     0.000     13.23
   AlO2-           4.410e-15   4.220e-15   -14.356   -14.375    -0.019     10.31
   Al(CH3COO)2+    0.000e+00   0.000e+00   -52.497   -52.516    -0.019     49.72
C(-2)         0.000e+00
   C2H4            0.000e+00   0.000e+00   -45.324   -45.324     0.000     46.08
C(-3)         3.615e-38
   C2H6            1.807e-38   1.807e-38   -37.743   -37.743     0.000     51.60
C(-4)         7.764e-20
   CH4             7.764e-20   7.764e-20   -19.110   -19.110     0.000     37.70
C(2)          3.197e-16
   CO              3.197e-16   3.197e-16   -15.495   -15.495     0.000     33.98
C(4)          2.273e-01
   CO2             2.269e-01   2.270e-01    -0.644    -0.644     0.000     33.59
   HCO3-           4.323e-04   4.136e-04    -3.364    -3.383    -0.019     24.85
   NaHCO3          2.199e-08   2.199e-08    -7.658    -7.658     0.000      1.80
   CO3-2           9.610e-11   8.058e-11   -10.017   -10.094    -0.076     -5.14
   CaCO3           9.661e-12   9.661e-12   -11.015   -11.015     0.000    -15.60
   MgCO3           3.006e-13   3.006e-13   -12.522   -12.522     0.000    -18.13
   HCOOH           1.298e-13   1.298e-13   -12.887   -12.887     0.000     35.03
   HCOO-           8.367e-14   8.003e-14   -13.077   -13.097    -0.019     26.18
   CH3COOH         1.536e-24   1.536e-24   -23.814   -23.814     0.000     52.37
   CH3COO-         1.075e-25   1.029e-25   -24.968   -24.987    -0.019     40.52
   CH3OH           1.194e-26   1.194e-26   -25.923   -25.923     0.000     38.19
   FeCH3COO+       4.992e-28   4.776e-28   -27.302   -27.321    -0.019     24.11
   CH2O            4.764e-28   4.764e-28   -27.322   -27.322     0.000     27.26
   CaCH3COO+       4.588e-29   4.389e-29   -28.338   -28.358    -0.019     29.63
   MgCH3COO+       6.865e-30   6.569e-30   -29.163   -29.183    -0.019     25.68
   NaCH3COO        3.480e-30   3.480e-30   -29.458   -29.458     0.000     48.63
   CH3CH2OH        0.000e+00   0.000e+00   -40.428   -40.428     0.000     55.09
   Fe(CH3COO)2     0.000e+00   0.000e+00   -51.131   -51.131     0.000     76.72
   Ca(CH3COO)2     0.000e+00   0.000e+00   -52.138   -52.138     0.000     82.73
   Al(CH3COO)2+    0.000e+00   0.000e+00   -52.497   -52.516    -0.019     49.72
   Mg(CH3COO)2     0.000e+00   0.000e+00   -53.422   -53.422     0.000     78.38
   C3H8            0.000e+00   0.000e+00   -54.475   -54.475     0.000     66.01
   Na(CH3COO)2-    0.000e+00   0.000e+00   -54.817   -54.836    -0.019    103.82
Ca            5.666e-05
   Ca+2            5.522e-05   4.645e-05    -4.258    -4.333    -0.075    -18.03
   CaSO4           1.432e-06   1.432e-06    -5.844    -5.844     0.000      7.69
   CaCl+           4.228e-10   4.045e-10    -9.374    -9.393    -0.019      5.90
   CaCO3           9.661e-12   9.661e-12   -11.015   -11.015     0.000    -15.60
   CaCl2           1.831e-14   1.831e-14   -13.737   -13.737     0.000     32.98
   CaCH3COO+       4.588e-29   4.389e-29   -28.338   -28.358    -0.019     29.63
   Ca(CH3COO)2     0.000e+00   0.000e+00   -52.138   -52.138     0.000     82.73
Cl(-1)        4.226e-05
   Cl-             4.225e-05   4.040e-05    -4.374    -4.394    -0.019     18.20
   FeCl+           7.162e-09   6.853e-09    -8.145    -8.164    -0.019      1.17
   HCl             2.298e-09   2.298e-09    -8.639    -8.639     0.000     -1.78
   CaCl+           4.228e-10   4.045e-10    -9.374    -9.393    -0.019      5.90
   NaCl            2.969e-10   2.969e-10    -9.527    -9.527     0.000     24.29
   MgCl+           1.092e-10   1.045e-10    -9.962    -9.981    -0.019      1.35
   CaCl2           1.831e-14   1.831e-14   -13.737   -13.737     0.000     32.98
   FeCl2           1.522e-15   1.522e-15   -14.817   -14.817     0.000     27.74
   FeCl+2          6.068e-21   5.088e-21   -20.217   -20.293    -0.076    -18.38
Cl(1)         0.000e+00
   ClO-            0.000e+00   0.000e+00   -51.687   -51.706    -0.019      0.72
Cl(3)         0.000e+00
   ClO2-           0.000e+00   0.000e+00   -91.948   -91.968    -0.019     22.26
Cl(5)         0.000e+00
   ClO3-           0.000e+00   0.000e+00  -118.577  -118.597    -0.019     37.17
Cl(7)         0.000e+00
   ClO4-           0.000e+00   0.000e+00  -149.473  -149.492    -0.019     44.87
Fe(2)         2.705e-04
   Fe+2            2.704e-04   2.275e-04    -3.568    -3.643    -0.075    -21.78
   FeCl+           7.162e-09   6.853e-09    -8.145    -8.164    -0.019      1.17
   FeOH+           4.281e-10   4.096e-10    -9.368    -9.388    -0.019    -16.49
   FeCl2           1.522e-15   1.522e-15   -14.817   -14.817     0.000     27.74
   FeCH3COO+       4.992e-28   4.776e-28   -27.302   -27.321    -0.019     24.11
   Fe(CH3COO)2     0.000e+00   0.000e+00   -51.131   -51.131     0.000     76.72
Fe(3)         1.865e-14
   FeOH+2          1.779e-14   1.492e-14   -13.750   -13.826    -0.076    -24.91
   Fe+3            8.636e-16   5.931e-16   -15.064   -15.227    -0.163    -37.02
   FeCl+2          6.068e-21   5.088e-21   -20.217   -20.293    -0.076    -18.38
H(0)          2.288e-13
   H2              1.144e-13   1.144e-13   -12.942   -12.941     0.000     25.52
Mg            4.122e-06
   Mg+2            3.919e-06   3.310e-06    -5.407    -5.480    -0.073    -21.92
   MgSO4           2.030e-07   2.030e-07    -6.692    -6.692     0.000      6.03
   MgCl+           1.092e-10   1.045e-10    -9.962    -9.981    -0.019      1.35
   MgCO3           3.006e-13   3.006e-13   -12.522   -12.522     0.000    -18.13
   MgCH3COO+       6.865e-30   6.569e-30   -29.163   -29.183    -0.019     25.68
   Mg(CH3COO)2     0.000e+00   0.000e+00   -53.422   -53.422     0.000     78.38
Na            4.226e-05
   Na+             4.224e-05   4.041e-05    -4.374    -4.393    -0.019     -1.21
   NaHCO3          2.199e-08   2.199e-08    -7.658    -7.658     0.000      1.80
   NaCl            2.969e-10   2.969e-10    -9.527    -9.527     0.000     24.29
   NaHSiO3         1.813e-13   1.813e-13   -12.742   -12.742     0.000     12.94
   NaOH            3.786e-16   3.786e-16   -15.422   -15.422     0.000      3.67
   NaCH3COO        3.480e-30   3.480e-30   -29.458   -29.458     0.000     48.63
   Na(CH3COO)2-    0.000e+00   0.000e+00   -54.817   -54.836    -0.019    103.82
Ntg           2.415e-04
   Ntg             2.415e-04   2.416e-04    -3.617    -3.617     0.000     29.29
O(0)         -2.135e-13
   HCOOH           1.298e-13   1.298e-13   -12.887   -12.887     0.000     35.03
   HCOO-           8.367e-14   8.003e-14   -13.077   -13.097    -0.019     26.18
   CH3COOH         1.536e-24   1.536e-24   -23.814   -23.814     0.000     52.37
   CH3COO-         1.075e-25   1.029e-25   -24.968   -24.987    -0.019     40.52
   CH3OH           1.194e-26   1.194e-26   -25.923   -25.923     0.000     38.19
   FeCH3COO+       4.992e-28   4.776e-28   -27.302   -27.321    -0.019     24.11
   CH2O            4.764e-28   4.764e-28   -27.322   -27.322     0.000     27.26
   CaCH3COO+       4.588e-29   4.389e-29   -28.338   -28.358    -0.019     29.63
   MgCH3COO+       6.865e-30   6.569e-30   -29.163   -29.183    -0.019     25.68
   NaCH3COO        3.480e-30   3.480e-30   -29.458   -29.458     0.000     48.63
   S4O6-2          8.935e-31   7.484e-31   -30.049   -30.126    -0.077     56.86
   S2O6-2          3.237e-33   2.711e-33   -32.490   -32.567    -0.077     40.61
   S3O6-2          7.260e-40   6.081e-40   -39.139   -39.216    -0.077     42.12
   CH3CH2OH        0.000e+00   0.000e+00   -40.428   -40.428     0.000     55.09
   S5O6-2          0.000e+00   0.000e+00   -49.549   -49.626    -0.077     45.76
   Fe(CH3COO)2     0.000e+00   0.000e+00   -51.131   -51.131     0.000     76.72
   Ca(CH3COO)2     0.000e+00   0.000e+00   -52.138   -52.138     0.000     82.73
   Al(CH3COO)2+    0.000e+00   0.000e+00   -52.497   -52.516    -0.019     49.72
   Mg(CH3COO)2     0.000e+00   0.000e+00   -53.422   -53.422     0.000     78.38
   C3H8            0.000e+00   0.000e+00   -54.475   -54.475     0.000     66.01
   Na(CH3COO)2-    0.000e+00   0.000e+00   -54.817   -54.836    -0.019    103.82
   O2              0.000e+00   0.000e+00   -64.775   -64.775     0.000     30.75
S(-2)         5.613e-11
   H2S             5.611e-11   5.611e-11   -10.251   -10.251     0.000     37.17
   HS-             2.644e-14   2.529e-14   -13.578   -13.597    -0.019     20.80
   S2-2            1.403e-27   1.175e-27   -26.853   -26.930    -0.077     20.25
   S3-2            9.104e-32   7.625e-32   -31.041   -31.118    -0.077     29.32
   S4-2            3.525e-36   2.953e-36   -35.453   -35.530    -0.077     38.29
   S5-2            0.000e+00   0.000e+00   -40.078   -40.155    -0.077     47.25
S(2)          1.847e-16
   S2O3-2          9.235e-17   7.735e-17   -16.035   -16.112    -0.077     29.01
S(3)          4.371e-34
   S2O4-2          2.186e-34   1.835e-34   -33.660   -33.736    -0.076     28.93
S(4)          3.244e-14
   HSO3-           3.178e-14   3.041e-14   -13.498   -13.517    -0.019     39.58
   SO2             6.511e-16   6.511e-16   -15.186   -15.186     0.000     38.40
   SO3-2           8.029e-18   6.732e-18   -17.095   -17.172    -0.076     -3.21
   S4O6-2          8.935e-31   7.484e-31   -30.049   -30.126    -0.077     56.86
   S2O6-2          3.237e-33   2.711e-33   -32.490   -32.567    -0.077     40.61
   S3O6-2          7.260e-40   6.081e-40   -39.139   -39.216    -0.077     42.12
   S5O6-2          0.000e+00   0.000e+00   -49.549   -49.626    -0.077     45.76
S(5)          3.217e-32
   S2O5-2          1.608e-32   1.347e-32   -31.794   -31.871    -0.077     34.06
S(6)          2.500e-04
   SO4-2           2.422e-04   2.029e-04    -3.616    -3.693    -0.077     15.05
   HSO4-           6.130e-06   5.865e-06    -5.213    -5.232    -0.019     40.56
   CaSO4           1.432e-06   1.432e-06    -5.844    -5.844     0.000      7.69
   MgSO4           2.030e-07   2.030e-07    -6.692    -6.692     0.000      6.03
S(7)          0.000e+00
   S2O8-2          0.000e+00   0.000e+00   -68.807   -68.884    -0.077     79.48
S(8)          0.000e+00
   HSO5-           0.000e+00   0.000e+00   -56.530   -56.549    -0.019     50.67
Si            1.943e-04
   SiO2            1.943e-04   1.943e-04    -3.712    -3.712     0.000     15.72
   HSiO3-          1.092e-10   1.044e-10    -9.962    -9.981    -0.019      5.04
   NaHSiO3         1.813e-13   1.813e-13   -12.742   -12.742     0.000     12.94

------------------------------Saturation indices-------------------------------

  Phase               SI** log IAP   log K(302 K,   8 atm)

  [(6)(CB)(CB)S]  -12.60     49.59   62.19  S
  [(aro)-O-(aro)] -12.08    -32.39  -20.31  O
  Afwillite       -57.92      1.17   59.08  Ca3Si2O4(OH)6
  Akermanite      -44.40      0.03   44.43  Ca2MgSi2O7
  Al              -94.24     52.99  147.24  Al
  Al2(SO4)3       -41.74    -23.85   17.88  Al2(SO4)3
  Albite          -10.04     -7.52    2.52  NaAlSi3O8
  Albite_high     -11.33     -7.52    3.81  NaAlSi3O8
  Albite_low      -10.04     -7.52    2.52  NaAlSi3O8
  Amesite-14A     -55.98     17.08   73.06  Mg4Al4Si2O10(OH)8
  Analcime         -9.96     -4.10    5.85  Na.96Al.96Si2.04O6:H2O
  Andalusite      -10.12      5.11   15.23  Al2SiO5
  Andradite       -43.75    -11.40   32.36  Ca3Fe2(SiO4)3
  Anhydrite        -3.63     -8.03   -4.40  CaSO4
  Anorthite       -21.38      4.26   25.64  CaAl2(SiO4)2
  Anthophyllite   -82.81    -17.67   65.15  Mg7Si8O22(OH)2
  Antigorite     -510.11    -43.77  466.34  Mg48Si34O85(OH)62
  Aragonite        -6.02     -4.12    1.90  CaCO3
  Artinite        -22.82     -3.55   19.26  Mg2CO3(OH)2:3H2O
  Bassanite        -4.27     -8.03   -3.76  CaSO4:0.5H2O
  Beidellite-Ca    -6.35     -2.68    3.67  Ca.175Al2.35Si3.65O10(OH)2
  Beidellite-Fe    -4.80     -2.56    2.24  Fe.175Al2.35Si3.65O10(OH)2
  Beidellite-Mg    -5.72     -2.89    2.84  Mg.175Al2.35Si3.65O10(OH)2
  Beidellite-Na    -6.57     -3.46    3.10  Na.35Al2.35Si3.65O10(OH)2
  Boehmite         -2.83      4.41    7.24  AlO2H
  Brucite         -14.26      1.72   15.97  Mg(OH)2
  Bytownite       -21.38      4.26   25.64  CaAl2(SiO4)2
  C                -5.26     57.79   63.05  C
  C2H4(g)         -42.97    -45.32   -2.35  C2H4
  C2H6(g)         -34.77    -37.74   -2.98  C2H6
  C3H8(g)         -51.56    -54.47   -2.91  C3H8
  Ca             -102.28     35.25  137.53  Ca
  Ca-Al_Pyroxene  -26.93      7.97   34.90  CaAl2SiO6
  Ca3Al2O6        -93.30     17.42  110.72  Ca3Al2O6
  Ca4Al2Fe2O10   -125.90     11.42  137.32  Ca4Al2Fe2O10
  CaAl2O4         -34.01     11.68   45.69  CaAl2O4
  CaAl4O7         -46.10     20.50   66.60  CaAl4O7
  Calcite          -5.87     -4.12    1.75  CaCO3
  CH4(g)          -16.23    -19.11   -2.88  CH4
  Chalcedony       -0.04     -3.71   -3.67  SiO2
  Chamosite       -33.79     15.45   49.25  Fe5Al2Si3O10(OH)8
  Chloromagnesite -35.64    -14.27   21.37  MgCl2
  Chrysotile      -32.70     -2.27   30.43  Mg3Si2O5(OH)4
  Clinochlore-14A -59.08      6.27   65.35  Mg5Al2Si3O10(OH)8
  Clinochlore-7A  -62.42      6.27   68.69  Mg5Al2Si3O10(OH)8
  Clinoptilolite-Ca -26.16    -33.85   -7.69  Ca1.7335Al3.45Fe.017Si14.533O36:10.922H2O
  Clinoptilolite-Na -33.97    -41.57   -7.61  Na3.467Al3.45Fe.017Si14.533O36:10.922H2O
  Clinozoisite    -34.01      7.82   41.83  Ca2Al3Si3O12(OH)
  CO(g)           -12.46    -15.50   -3.03  CO
  CO2(g)            0.88     -6.98   -7.86  CO2
  Coesite          -0.57     -3.71   -3.14  SiO2
  Cordierite_anhyd -47.83      2.52   50.35  Mg2Al4Si5O18
  Cordierite_hydr -45.39      2.52   47.91  Mg2Al4Si5O18:H2O
  Corundum         -8.75      8.82   17.57  Al2O3
  Cristobalite(alpha)  -0.32     -3.71   -3.39  SiO2
  Cristobalite(beta)  -0.75     -3.71   -2.96  SiO2
  Cronstedtite-7A -20.96     -5.46   15.50  Fe2Fe2SiO5(OH)4
  Daphnite-14A    -35.21     15.45   50.66  Fe5AlAlSi3O10(OH)8
  Daphnite-7A     -38.55     15.45   54.00  Fe5AlAlSi3O10(OH)8
  Dawsonite        -7.50     -3.37    4.13  NaAlCO3(OH)2
  Diaspore         -2.43      4.41    6.84  AlHO2
  Dicalcium_silicate -34.50      2.02   36.52  Ca2SiO4
  Diopside        -23.36     -2.84   20.52  CaMgSi2O6
  Dolomite        -11.69     -9.38    2.31  CaMg(CO3)2
  Dolomite-dis    -13.19     -9.38    3.81  CaMg(CO3)2
  Dolomite-ord    -11.68     -9.38    2.30  CaMg(CO3)2
  Enstatite       -13.05     -1.99   11.06  MgSiO3
  Epidote         -32.72     -1.01   31.71  Ca2FeAl2Si3O12OH
  Epidote-ord     -32.71     -1.01   31.70  FeCa2Al2(OH)(SiO4)3
  Ettringite      -68.14     -6.72   61.43  Ca6Al2(SO4)3(OH)12:26H2O
  Fayalite        -15.24      3.40   18.64  Fe2SiO4
  Fe              -22.04     35.94   57.98  Fe
  Fe(OH)2         -10.07      3.55   13.63  Fe(OH)2
  Fe(OH)3          -9.84     -4.43    5.41  Fe(OH)3
  Fe2(SO4)3       -43.88    -41.53    2.35  Fe2(SO4)3
  FeO              -9.67      3.56   13.23  FeO
  Ferrite-Ca      -26.75     -5.99   20.76  CaFe2O4
  Ferrite-Dicalcium -58.60     -3.13   55.48  Ca2Fe2O5
  Ferrite-Mg      -27.38     -7.14   20.24  MgFe2O4
  Ferrosilite      -7.41     -0.16    7.25  FeSiO3
  FeSO4            -9.74     -7.34    2.40  FeSO4
  Forsterite      -27.51     -0.28   27.24  Mg2SiO4
  Foshagite       -64.48      0.32   64.80  Ca4Si3O9(OH)2:0.5H2O
  Gehlenite       -44.02     10.84   54.86  Ca2Al2SiO7
  Gibbsite         -3.05      4.41    7.45  Al(OH)3
  Goethite         -4.79     -4.43    0.36  FeOOH
  Greenalite      -18.89      3.24   22.13  Fe3Si2O5(OH)4
  Grossular       -44.30      6.28   50.58  Ca3Al2(SiO4)3
  Gypsum           -3.49     -8.03   -4.53  CaSO4:2H2O
  Gyrolite        -27.99     -5.41   22.58  Ca2Si3O7(OH)2:1.5H2O
  H2(g)            -9.83    -12.94   -3.11  H2
  H2O(g)           -1.46     -0.00    1.46  H2O
  H2S(g)           -9.21    -17.20   -7.98  H2S
  Halite          -10.36     -8.79    1.57  NaCl
  Hatrurite       -67.26      4.88   72.14  Ca3SiO5
  Hedenbergite    -20.19     -1.00   19.19  CaFe(SiO3)2
  Hematite         -8.58     -8.86   -0.28  Fe2O3
  Hercynite       -15.47     12.37   27.84  FeAl2O4
  Hillebrandite   -34.19      2.02   36.21  Ca2SiO3(OH)2:0.17H2O
  Huntite         -29.65    -19.91    9.75  CaMg3(CO3)4
  Hydromagnesite  -49.25    -19.34   29.91  Mg5(CO3)4(OH)2:4H2O
  Hydrophilite    -24.64    -13.12   11.52  CaCl2
  Ice              -0.16     -0.00    0.16  H2O
  Jadeite         -11.89     -3.81    8.08  NaAl(SiO3)2
  Kaolinite        -4.91      1.39    6.30  Al2Si2O5(OH)4
  KerogenC128    -1504.68   9083.1910587.87  C128H68O7
  KerogenC292    -3438.65  23001.2126439.85  C292H288O12
  KerogenC515    -7102.57  40346.6247449.19  C515H596O72
  Kyanite          -9.86      5.11   14.97  Al2SiO5
  Larnite         -35.77      2.02   37.79  Ca2SiO4
  Laumontite      -16.17     -3.17   13.01  CaAl2Si4O12:4H2O
  Lawrencite      -21.25    -12.43    8.82  FeCl2
  Lawsonite       -17.17      4.26   21.43  CaAl2Si2O7(OH)2:H2O
  Lime            -29.16      2.87   32.03  CaO
  Lizardite       -32.30     -2.27   30.02  Mg3Si2O5(OH)4
  Magnesite        -7.41     -5.26    2.15  MgCO3
  Magnetite       -15.12     -5.30    9.82  Fe3O4
  Margarite       -26.40     13.08   39.48  CaAl4Si2O10(OH)2
  Mayenite       -386.78     96.12  482.90  Ca12Al14O33
  Melanterite      -4.98     -7.35   -2.37  FeSO4:7H2O
  Merwinite       -64.32      2.89   67.21  MgCa3(SiO4)2
  Mesolite        -14.05     -1.06   13.00  Na.676Ca.657Al1.99Si3.01O10:2.647H2O
  Mg              -86.33     34.11  120.44  Mg
  MgOHCl          -21.83     -6.28   15.56  MgOHCl
  MgSO4           -13.75     -9.17    4.58  MgSO4
  Minnesotaite    -17.73     -4.18   13.55  Fe3Si4O10(OH)2
  Mirabilite      -11.57    -12.50   -0.92  Na2SO4:10H2O
  Molysite        -41.45    -28.41   13.04  FeCl3
  Monohydrocalcite  -6.74     -4.12    2.62  CaCO3:H2O
  Monticellite    -28.12      0.87   28.99  CaMgSiO4
  Montmor-Ca       -8.35     -6.47    1.88  Ca.175Mg.35Al1.65Si4O10(OH)2
  Montmor-Mg       -7.90     -6.67    1.23  Mg.525Al1.65Si4O10(OH)2
  Montmor-Na       -9.21     -7.25    1.97  Na.35Mg.35Al1.65Si4O10(OH)2
  Mordenite        -8.79    -14.10   -5.31  Ca.2895Na.361Al.94Si5.06O12:3.468H2O
  Na              -50.91     15.40   66.31  Na
  Na2CO3          -19.62     -8.57   11.05  Na2CO3
  Na2CO3:7H2O     -18.60     -8.58   10.02  Na2CO3:7H2O
  Na2O            -68.02     -1.59   66.44  Na2O
  Na2SiO3         -27.27     -5.30   21.97  Na2SiO3
  NaFeO2          -24.66     -5.22   19.43  NaFeO2
  Nahcolite        -7.68     -7.78   -0.10  NaHCO3
  Natrolite       -21.79     -3.91   17.88  Na2Al2Si3O10:2H2O
  Natron          -18.32     -8.59    9.73  Na2CO3:10H2O
  Natrosilite     -26.94     -9.01   17.92  Na2Si2O5
  Nepheline       -13.47     -0.10   13.38  NaAlSiO4
  Nesquehonite    -10.44     -5.27    5.17  MgCO3:3H2O
  Nontronite-Ca   -10.62    -20.36   -9.75  Ca.175Fe2Al.35Si3.65H2O12
  Nontronite-Mg    -9.99    -20.56  -10.58  Mg.175Fe2Al.35Si3.65H2O12
  Nontronite-Na   -10.85    -21.14  -10.29  Na.35Fe2Al.35Si3.65H2O12
  Ntg(g)           -0.41     -3.62   -3.21  Ntg
  O2(g)           -61.85    -64.78   -2.93  O2
  Okenite         -14.82     -4.56   10.26  CaSi2O4(OH)2:H2O
  Paragonite      -15.32      1.30   16.62  NaAl3Si3O10(OH)2
  Pargasite       -96.49      2.77   99.26  NaCa2Al3Mg4Si6O22(OH)2
  Periclase       -19.19      1.72   20.91  MgO
  Portlandite     -19.32      2.86   22.19  Ca(OH)2
  Prehnite        -28.52      3.41   31.93  Ca2Al2Si3O10(OH)2
  Pseudowollastonite -14.59     -0.85   13.74  CaSiO3
  Pyrite           -4.87    -29.26  -24.39  FeS2
  Pyrophyllite     -6.04     -6.03    0.01  Al2Si4O10(OH)2
  Pyrrhotite       -9.88    -13.64   -3.76  FeS
  Quartz            0.22     -3.71   -3.93  SiO2
  Rankinite       -49.81      1.17   50.98  Ca3Si2O7
  Riebeckite      -37.88    -29.48    8.40  Na2Fe5Si8O22(OH)2
  Ripidolite      -61.76      9.94   71.70  Mg3Fe2Al2Si3O10(OH)8
  S                -5.21    -49.58  -44.37  S
  Saponite-Fe-Ca  -20.61     -0.84   19.78  Ca.175Fe3Al.35Si3.65O10(OH)2
  Saponite-Fe-Fe  435.53     -0.72 -436.25  Fe3.175Al.35Si3.65O10(OH)2
  Saponite-Fe-Mg  -19.98     -1.04   18.94  Mg.175Fe3Al.35Si3.65O10(OH)2
  Saponite-Fe-Na  -20.82     -1.62   19.21  Na.35Fe3Al.35Si3.65O10(OH)2
  Saponite-Mg-Ca  -34.78     -6.35   28.43  Ca.175Mg3Al.35Si3.65O10(OH)2
  Saponite-Mg-Fe  -33.24     -6.23   27.01  Fe.175Mg3Al.35Si3.65O10(OH)2
  Saponite-Mg-Mg  -34.13     -6.55   27.58  Mg3.175Al.35Si3.65O10(OH)2
  Saponite-Mg-Na  -35.02     -7.13   27.89  Na.35Mg3Al.35Si3.65O10(OH)2
  Scolecite       -14.64      0.55   15.18  CaAl2Si3O10:3H2O
  Sepiolite       -45.20    -15.41   29.79  Mg4Si6O15(OH)2:6H2O
  Si              -85.37     61.06  146.44  Si
  Siderite         -3.12     -3.43   -0.31  FeCO3
  Sillimanite     -10.47      5.11   15.58  Al2SiO5
  SiO2(am)         -1.03     -3.71   -2.68  SiO2
  SO2(g)          -15.28    -15.19    0.10  SO2
  Spinel          -25.96     10.54   36.50  Al2MgO4
  Talc            -30.27     -9.69   20.58  Mg3Si4O10(OH)2
  Thenardite      -12.12    -12.48   -0.36  Na2SO4
  Thermonatrite   -19.43     -8.57   10.86  Na2CO3:H2O
  Tobermorite-11A -72.55     -7.95   64.60  Ca5Si6H11O22.5
  Tremolite       -75.19    -15.37   59.81  Ca2Mg5Si8O22(OH)2
  Tridymite         0.04     -3.71   -3.75  SiO2
  Troilite         -9.78    -13.64   -3.86  FeS
  Wairakite       -20.43     -3.16   17.27  CaAl2Si4O10(OH)4
  Wollastonite    -14.36     -0.85   13.51  CaSiO3
  Wustite          -9.60      2.52   12.12  Fe.947O
  Xonotlite       -95.46     -5.08   90.39  Ca6Si6O17(OH)2
  Zoisite         -34.04      7.82   41.87  Ca2Al3(SiO4)3OH

**For a gas, SI = log10(fugacity). Fugacity = pressure * phi / 1 atm.
  For ideal gases, phi = 1.

Reaction step 2.

Using solution 1.	Rainwater
Using kinetics 1.	

Kinetics 1.	

	Time step: 318732 seconds  (Incremented time: 637464 seconds)

	Rate name       Delta Moles Total Moles   Reactant        Coefficient

	SiO2(am)         -0.000e+00   0.000e+00   SiO2                      1
	Albite           -9.087e-07   1.900e-02   NaAlSi3O8                 1
	Anorthite        -3.656e-05   5.273e-02   CaAl2(SiO4)2              1
	Bytownite        -1.759e-04   6.840e-03   CaAl2(SiO4)2              1
	K-Feldspar       -0.000e+00   0.000e+00   KAlSi3O8                  1
	Nepheline        -0.000e+00   0.000e+00   NaAlSiO4                  1
	Forsterite       -1.418e-03   6.871e-01   Mg2SiO4                   1
	Fayalite         -0.000e+00   0.000e+00   Fe2SiO4                   1
	Grossular        -0.000e+00   0.000e+00   Ca3Al2(SiO4)3             1
	Andradite        -0.000e+00   0.000e+00   Ca3Fe2(SiO4)3             1
	Kyanite          -0.000e+00   0.000e+00   Al2SiO5                   1
	Epidote          -0.000e+00   0.000e+00   Ca2FeAl2Si3O12OH           1
	Zoisite          -0.000e+00   0.000e+00   Ca2Al3(SiO4)3OH           1
	Cordierite_anhyd  -0.000e+00   0.000e+00   Mg2Al4Si5O18              1
	Diopside         -0.000e+00   0.000e+00   CaMgSi2O6                 1
	Enstatite        -3.613e-06   3.500e-01   MgSiO3                    1
	Jadeite          -0.000e+00   0.000e+00   NaAl(SiO3)2               1
	Wollastonite     -0.000e+00   0.000e+00   CaSiO3                    1
	Anthophyllite    -0.000e+00   0.000e+00   Mg7Si8O22(OH)2            1
	Riebeckite       -0.000e+00   0.000e+00   Na2Fe5Si8O22(OH)2           1
	Tremolite        -0.000e+00   0.000e+00   Ca2Mg5Si8O22(OH)2           1
	Muscovite        -0.000e+00   0.000e+00   KAl3Si3O10(OH)2           1
	Paragonite       -0.000e+00   0.000e+00   NaAl3Si3O10(OH)2           1
	Phlogopite       -0.000e+00   0.000e+00   KAlMg3Si3O10(OH)2           1
	Annite           -0.000e+00   0.000e+00   KFe3AlSi3O10(OH)2           1
	Pyrophyllite     -0.000e+00   0.000e+00   Al2Si4O10(OH)2            1
	Kaolinite        -0.000e+00   0.000e+00   Al2Si2O5(OH)4             1
	Montmor-K        -0.000e+00   0.000e+00   K.35Mg.35Al1.65Si4O10(OH)2           1
	Smectite-low-Fe-Mg  -0.000e+00   0.000e+00   Ca.02Na.15K.2Fe.29Fe.16Mg.9Al1.25Si3.75H2O12           1
	Lizardite        -0.000e+00   0.000e+00   Mg3Si2O5(OH)4             1
	Chrysotile       -0.000e+00   0.000e+00   Mg3Si2O5(OH)4             1
	Clinochlore-14A  -0.000e+00   0.000e+00   Mg5AlAlSi3O10(OH)8           1
	Daphnite-14A     -0.000e+00   0.000e+00   Fe5AlAlSi3O10(OH)8           1
	Talc             -0.000e+00   0.000e+00   Mg3Si4O10(OH)2            1
	Prehnite         -0.000e+00   0.000e+00   Ca2Al2Si3O10(OH)2           1
	Goethite         -0.000e+00   0.000e+00   FeOOH                     1
	Hematite         -0.000e+00   0.000e+00   Fe2O3                     1
	Magnetite        -0.000e+00   0.000e+00   Fe3O4                     1
	Brucite          -0.000e+00   0.000e+00   Mg(OH)2                   1
	Gibbsite         -0.000e+00   0.000e+00   Al(OH)3                   1
	Diaspore         -0.000e+00   0.000e+00   AlHO2                     1
	Calcite          -0.000e+00   0.000e+00   CaCO3                     1
	Dolomite-dis     -0.000e+00   0.000e+00   CaMg(CO3)2                1
	Dolomite-ord     -0.000e+00   0.000e+00   CaMg(CO3)2                1
	Magnesite        -0.000e+00   0.000e+00   MgCO3                     1
	Gypsum           -0.000e+00   0.000e+00   CaSO4:2H2O                1
	Anhydrite        -0.000e+00   0.000e+00   CaSO4                     1
	Pyrite           -2.085e-08   2.700e-03   FeS2                      1
	Pyrrhotite       -0.000e+00   0.000e+00   FeS                       1
	Halite           -0.000e+00   0.000e+00   NaCl                      1

-----------------------------Solution composition------------------------------

	Elements           Molality       Moles

	Al                1.226e-06   8.705e-04
	C                 2.273e-01   1.614e+02
	Ca                5.696e-05   4.043e-02
	Cl                4.226e-05   3.000e-02
	Fe                2.705e-04   1.920e-01
	Mg                8.124e-06   5.767e-03
	Na                4.226e-05   3.000e-02
	Ntg               2.415e-04   1.714e-01
	S                 2.500e-04   1.775e-01
	Si                1.969e-04   1.398e-01

----------------------------Description of solution----------------------------

                                       pH  =   3.606      Charge balance
                                       pe  =   1.325      Adjusted to redox equilibrium
                          Density (g/cm³)  =   0.99844
                               Volume (L)  = 718.19770
                        Activity of water  =   0.996
                           Ionic strength  =   1.551e-03
                       Mass of water (kg)  =   7.099e+02
                 Total alkalinity (eq/kg)  =   1.747e-04
                       Total CO2 (mol/kg)  =   2.273e-01
                         Temperature (°C)  =  29.84
                           Pressure (atm)  =  8.00
                  Electrical balance (eq)  =  -2.279e-13
 Percent error, 100*(Cat-|An|)/(Cat+|An|)  =  -0.00
                               Iterations  = 115
                                  Total H  = 7.883812e+04
                                  Total O  = 3.974290e+04

----------------------------Distribution of species----------------------------

                                               Log       Log       Log    mole V
   Species          Molality    Activity  Molality  Activity     Gamma   cm³/mol

   H+              2.581e-04   2.475e-04    -3.588    -3.606    -0.018      0.00
   OH-             5.821e-11   5.567e-11   -10.235   -10.254    -0.019     -3.93
   H2O             5.553e+01   9.961e-01     1.744    -0.002     0.000     18.09
Al            1.226e-06
   Al+3            1.167e-06   8.001e-07    -5.933    -6.097    -0.164    -42.47
   AlOH+2          5.951e-08   4.987e-08    -7.225    -7.302    -0.077    -27.85
   HAlO2           5.020e-12   5.020e-12   -11.299   -11.299     0.000     13.23
   AlO2-           9.142e-15   8.745e-15   -14.039   -14.058    -0.019     10.31
   Al(CH3COO)2+    0.000e+00   0.000e+00   -51.602   -51.622    -0.019     49.72
C(-2)         0.000e+00
   C2H4            0.000e+00   0.000e+00   -44.881   -44.881     0.000     46.08
C(-3)         1.189e-37
   C2H6            5.946e-38   5.946e-38   -37.226   -37.226     0.000     51.60
C(-4)         1.533e-19
   CH4             1.533e-19   1.533e-19   -18.814   -18.814     0.000     37.70
C(2)          3.789e-16
   CO              3.789e-16   3.789e-16   -15.421   -15.421     0.000     33.98
C(4)          2.273e-01
   CO2             2.269e-01   2.270e-01    -0.644    -0.644     0.000     33.59
   HCO3-           4.388e-04   4.197e-04    -3.358    -3.377    -0.019     24.85
   NaHCO3          2.231e-08   2.231e-08    -7.651    -7.651     0.000      1.80
   CO3-2           9.904e-11   8.299e-11   -10.004   -10.081    -0.077     -5.14
   CaCO3           9.997e-12   9.997e-12   -11.000   -11.000     0.000    -15.60
   MgCO3           6.098e-13   6.098e-13   -12.215   -12.215     0.000    -18.13
   HCOOH           1.539e-13   1.539e-13   -12.813   -12.813     0.000     35.03
   HCOO-           1.007e-13   9.628e-14   -12.997   -13.016    -0.019     26.18
   CH3COOH         3.033e-24   3.033e-24   -23.518   -23.518     0.000     52.37
   CH3COO-         2.156e-25   2.063e-25   -24.666   -24.686    -0.019     40.52
   CH3OH           1.989e-26   1.989e-26   -25.701   -25.701     0.000     38.19
   FeCH3COO+       1.000e-27   9.566e-28   -27.000   -27.019    -0.019     24.12
   CH2O            6.694e-28   6.694e-28   -27.174   -27.174     0.000     27.26
   CaCH3COO+       9.239e-29   8.838e-29   -28.034   -28.054    -0.019     29.63
   MgCH3COO+       2.710e-29   2.593e-29   -28.567   -28.586    -0.019     25.68
   NaCH3COO        6.973e-30   6.973e-30   -29.157   -29.157     0.000     48.63
   CH3CH2OH        1.037e-40   1.037e-40   -39.984   -39.984     0.000     55.09
   Fe(CH3COO)2     0.000e+00   0.000e+00   -50.527   -50.527     0.000     76.72
   Ca(CH3COO)2     0.000e+00   0.000e+00   -51.532   -51.532     0.000     82.73
   Al(CH3COO)2+    0.000e+00   0.000e+00   -51.602   -51.622    -0.019     49.72
   Mg(CH3COO)2     0.000e+00   0.000e+00   -52.524   -52.524     0.000     78.38
   C3H8            0.000e+00   0.000e+00   -53.736   -53.736     0.000     66.01
   Na(CH3COO)2-    0.000e+00   0.000e+00   -54.213   -54.232    -0.019    103.82
Ca            5.696e-05
   Ca+2            5.552e-05   4.667e-05    -4.256    -4.331    -0.075    -18.03
   CaSO4           1.437e-06   1.437e-06    -5.843    -5.843     0.000      7.69
   CaCl+           4.248e-10   4.063e-10    -9.372    -9.391    -0.019      5.90
   CaCO3           9.997e-12   9.997e-12   -11.000   -11.000     0.000    -15.60
   CaCl2           1.839e-14   1.839e-14   -13.735   -13.735     0.000     32.98
   CaCH3COO+       9.239e-29   8.838e-29   -28.034   -28.054    -0.019     29.63
   Ca(CH3COO)2     0.000e+00   0.000e+00   -51.532   -51.532     0.000     82.73
Cl(-1)        4.226e-05
   Cl-             4.225e-05   4.039e-05    -4.374    -4.394    -0.020     18.20
   FeCl+           7.158e-09   6.847e-09    -8.145    -8.164    -0.019      1.17
   HCl             2.264e-09   2.264e-09    -8.645    -8.645     0.000     -1.78
   CaCl+           4.248e-10   4.063e-10    -9.372    -9.391    -0.019      5.90
   NaCl            2.968e-10   2.968e-10    -9.528    -9.528     0.000     24.29
   MgCl+           2.151e-10   2.058e-10    -9.667    -9.687    -0.019      1.35
   CaCl2           1.839e-14   1.839e-14   -13.735   -13.735     0.000     32.98
   FeCl2           1.521e-15   1.521e-15   -14.818   -14.818     0.000     27.74
   FeCl+2          5.491e-21   4.601e-21   -20.260   -20.337    -0.077    -18.38
Cl(1)         0.000e+00
   ClO-            0.000e+00   0.000e+00   -51.760   -51.780    -0.019      0.72
Cl(3)         0.000e+00
   ClO2-           0.000e+00   0.000e+00   -92.096   -92.116    -0.019     22.26
Cl(5)         0.000e+00
   ClO3-           0.000e+00   0.000e+00  -118.799  -118.818    -0.019     37.17
Cl(7)         0.000e+00
   ClO4-           0.000e+00   0.000e+00  -149.768  -149.788    -0.019     44.87
Fe(2)         2.705e-04
   Fe+2            2.704e-04   2.274e-04    -3.568    -3.643    -0.075    -21.78
   FeCl+           7.158e-09   6.847e-09    -8.145    -8.164    -0.019      1.17
   FeOH+           4.343e-10   4.154e-10    -9.362    -9.381    -0.019    -16.49
   FeCl2           1.521e-15   1.521e-15   -14.818   -14.818     0.000     27.74
   FeCH3COO+       1.000e-27   9.566e-28   -27.000   -27.019    -0.019     24.12
   Fe(CH3COO)2     0.000e+00   0.000e+00   -50.527   -50.527     0.000     76.72
Fe(3)         1.712e-14
   FeOH+2          1.634e-14   1.369e-14   -13.787   -13.864    -0.077    -24.91
   Fe+3            7.821e-16   5.364e-16   -15.107   -15.270    -0.164    -37.02
   FeCl+2          5.491e-21   4.601e-21   -20.260   -20.337    -0.077    -18.38
H(0)          2.712e-13
   H2              1.356e-13   1.356e-13   -12.868   -12.868     0.000     25.52
Mg            8.124e-06
   Mg+2            7.724e-06   6.520e-06    -5.112    -5.186    -0.074    -21.92
   MgSO4           3.994e-07   3.994e-07    -6.399    -6.399     0.000      6.03
   MgCl+           2.151e-10   2.058e-10    -9.667    -9.687    -0.019      1.35
   MgCO3           6.098e-13   6.098e-13   -12.215   -12.215     0.000    -18.13
   MgCH3COO+       2.710e-29   2.593e-29   -28.567   -28.586    -0.019     25.68
   Mg(CH3COO)2     0.000e+00   0.000e+00   -52.524   -52.524     0.000     78.38
Na            4.226e-05
   Na+             4.224e-05   4.041e-05    -4.374    -4.394    -0.019     -1.21
   NaHCO3          2.231e-08   2.231e-08    -7.651    -7.651     0.000      1.80
   NaCl            2.968e-10   2.968e-10    -9.528    -9.528     0.000     24.29
   NaHSiO3         1.864e-13   1.864e-13   -12.730   -12.730     0.000     12.94
   NaOH            3.842e-16   3.842e-16   -15.415   -15.415     0.000      3.67
   NaCH3COO        6.973e-30   6.973e-30   -29.157   -29.157     0.000     48.63
   Na(CH3COO)2-    0.000e+00   0.000e+00   -54.213   -54.232    -0.019    103.82
Ntg           2.415e-04
   Ntg             2.415e-04   2.416e-04    -3.617    -3.617     0.000     29.29
O(0)         -2.546e-13
   HCOOH           1.539e-13   1.539e-13   -12.813   -12.813     0.000     35.03
   HCOO-           1.007e-13   9.628e-14   -12.997   -13.016    -0.019     26.18
   CH3COOH         3.033e-24   3.033e-24   -23.518   -23.518     0.000     52.37
   CH3COO-         2.156e-25   2.063e-25   -24.666   -24.686    -0.019     40.52
   CH3OH           1.989e-26   1.989e-26   -25.701   -25.701     0.000     38.19
   FeCH3COO+       1.000e-27   9.566e-28   -27.000   -27.019    -0.019     24.12
   CH2O            6.694e-28   6.694e-28   -27.174   -27.174     0.000     27.26
   CaCH3COO+       9.239e-29   8.838e-29   -28.034   -28.054    -0.019     29.63
   MgCH3COO+       2.710e-29   2.593e-29   -28.567   -28.586    -0.019     25.68
   NaCH3COO        6.973e-30   6.973e-30   -29.157   -29.157     0.000     48.63
   S4O6-2          2.681e-30   2.244e-30   -29.572   -29.649    -0.077     56.86
   S2O6-2          3.720e-33   3.114e-33   -32.429   -32.507    -0.077     40.61
   S3O6-2          1.348e-39   1.128e-39   -38.870   -38.948    -0.077     42.12
   CH3CH2OH        1.037e-40   1.037e-40   -39.984   -39.984     0.000     55.09
   S5O6-2          0.000e+00   0.000e+00   -48.864   -48.941    -0.077     45.76
   Fe(CH3COO)2     0.000e+00   0.000e+00   -50.527   -50.527     0.000     76.72
   Ca(CH3COO)2     0.000e+00   0.000e+00   -51.532   -51.532     0.000     82.73
   Al(CH3COO)2+    0.000e+00   0.000e+00   -51.602   -51.622    -0.019     49.72
   Mg(CH3COO)2     0.000e+00   0.000e+00   -52.524   -52.524     0.000     78.38
   C3H8            0.000e+00   0.000e+00   -53.736   -53.736     0.000     66.01
   Na(CH3COO)2-    0.000e+00   0.000e+00   -54.213   -54.232    -0.019    103.82
   O2              0.000e+00   0.000e+00   -64.923   -64.923     0.000     30.75
S(-2)         1.075e-10
   H2S             1.075e-10   1.075e-10    -9.969    -9.969     0.000     37.17
   HS-             5.140e-14   4.915e-14   -13.289   -13.308    -0.019     20.80
   S2-2            4.476e-27   3.746e-27   -26.349   -26.426    -0.077     20.25
   S3-2            4.691e-31   3.927e-31   -30.329   -30.406    -0.077     29.32
   S4-2            2.935e-35   2.457e-35   -34.532   -34.610    -0.077     38.29
   S5-2            1.124e-39   9.410e-40   -38.949   -39.026    -0.077     47.25
S(2)          3.536e-16
   S2O3-2          1.768e-16   1.480e-16   -15.753   -15.830    -0.077     29.01
S(3)          7.059e-34
   S2O4-2          3.530e-34   2.961e-34   -33.452   -33.529    -0.076     28.93
S(4)          3.785e-14
   HSO3-           3.709e-14   3.548e-14   -13.431   -13.450    -0.019     39.58
   SO2             7.485e-16   7.485e-16   -15.126   -15.126     0.000     38.40
   SO3-2           9.513e-18   7.972e-18   -17.022   -17.098    -0.077     -3.21
   S4O6-2          2.681e-30   2.244e-30   -29.572   -29.649    -0.077     56.86
   S2O6-2          3.720e-33   3.114e-33   -32.429   -32.507    -0.077     40.61
   S3O6-2          1.348e-39   1.128e-39   -38.870   -38.948    -0.077     42.12
   S5O6-2          0.000e+00   0.000e+00   -48.864   -48.941    -0.077     45.76
S(5)          4.382e-32
   S2O5-2          2.191e-32   1.834e-32   -31.659   -31.737    -0.077     34.06
S(6)          2.500e-04
   SO4-2           2.421e-04   2.027e-04    -3.616    -3.693    -0.077     15.05
   HSO4-           6.035e-06   5.773e-06    -5.219    -5.239    -0.019     40.56
   CaSO4           1.437e-06   1.437e-06    -5.843    -5.843     0.000      7.69
   MgSO4           3.994e-07   3.994e-07    -6.399    -6.399     0.000      6.03
S(7)          0.000e+00
   S2O8-2          0.000e+00   0.000e+00   -68.895   -68.972    -0.077     79.48
S(8)          0.000e+00
   HSO5-           0.000e+00   0.000e+00   -56.611   -56.630    -0.019     50.67
Si            1.969e-04
   SiO2            1.969e-04   1.969e-04    -3.706    -3.706     0.000     15.72
   HSiO3-          1.123e-10   1.074e-10    -9.950    -9.969    -0.019      5.04
   NaHSiO3         1.864e-13   1.864e-13   -12.730   -12.730     0.000     12.94

------------------------------Saturation indices-------------------------------

  Phase               SI** log IAP   log K(302 K,   8 atm)

  [(6)(CB)(CB)S]  -12.39     49.80   62.19  S
  [(aro)-O-(aro)] -12.16    -32.46  -20.31  O
  Afwillite       -57.86      1.22   59.08  Ca3Si2O4(OH)6
  Akermanite      -44.06      0.37   44.43  Ca2MgSi2O7
  Al              -93.82     53.41  147.24  Al
  Al2(SO4)3       -41.16    -23.27   17.88  Al2(SO4)3
  Albite           -9.71     -7.19    2.52  NaAlSi3O8
  Albite_high     -10.99     -7.19    3.81  NaAlSi3O8
  Albite_low       -9.71     -7.19    2.52  NaAlSi3O8
  Amesite-14A     -53.50     19.56   73.06  Mg4Al4Si2O10(OH)8
  Analcime         -9.64     -3.79    5.85  Na.96Al.96Si2.04O6:H2O
  Andalusite       -9.49      5.73   15.23  Al2SiO5
  Andradite       -43.74    -11.38   32.36  Ca3Fe2(SiO4)3
  Anhydrite        -3.62     -8.02   -4.40  CaSO4
  Anorthite       -20.73      4.91   25.64  CaAl2(SiO4)2
  Anthophyllite   -80.62    -15.47   65.15  Mg7Si8O22(OH)2
  Antigorite     -495.17    -28.83  466.34  Mg48Si34O85(OH)62
  Aragonite        -6.00     -4.10    1.90  CaCO3
  Artinite        -22.20     -2.94   19.26  Mg2CO3(OH)2:3H2O
  Bassanite        -4.27     -8.02   -3.76  CaSO4:0.5H2O
  Beidellite-Ca    -5.60     -1.93    3.67  Ca.175Al2.35Si3.65O10(OH)2
  Beidellite-Fe    -4.05     -1.81    2.24  Fe.175Al2.35Si3.65O10(OH)2
  Beidellite-Mg    -4.92     -2.08    2.84  Mg.175Al2.35Si3.65O10(OH)2
  Beidellite-Na    -5.82     -2.71    3.10  Na.35Al2.35Si3.65O10(OH)2
  Boehmite         -2.52      4.72    7.24  AlO2H
  Brucite         -13.95      2.02   15.97  Mg(OH)2
  Bytownite       -20.73      4.91   25.64  CaAl2(SiO4)2
  C                -5.11     57.94   63.05  C
  C2H4(g)         -42.53    -44.88   -2.35  C2H4
  C2H6(g)         -34.25    -37.23   -2.98  C2H6
  C3H8(g)         -50.82    -53.74   -2.91  C3H8
  Ca             -102.19     35.34  137.53  Ca
  Ca-Al_Pyroxene  -26.28      8.61   34.90  CaAl2SiO6
  Ca3Al2O6        -92.64     18.08  110.72  Ca3Al2O6
  Ca4Al2Fe2O10   -125.26     12.05  137.32  Ca4Al2Fe2O10
  CaAl2O4         -33.37     12.32   45.69  CaAl2O4
  CaAl4O7         -44.84     21.76   66.60  CaAl4O7
  Calcite          -5.86     -4.10    1.75  CaCO3
  CH4(g)          -15.93    -18.81   -2.88  CH4
  Chalcedony       -0.04     -3.71   -3.67  SiO2
  Chamosite       -33.09     16.15   49.25  Fe5Al2Si3O10(OH)8
  Chloromagnesite -35.34    -13.97   21.37  MgCl2
  Chrysotile      -31.77     -1.34   30.43  Mg3Si2O5(OH)4
  Clinochlore-14A -56.91      8.44   65.35  Mg5Al2Si3O10(OH)8
  Clinochlore-7A  -60.25      8.44   68.69  Mg5Al2Si3O10(OH)8
  Clinoptilolite-Ca -24.98    -32.67   -7.69  Ca1.7335Al3.45Fe.017Si14.533O36:10.922H2O
  Clinoptilolite-Na -32.79    -40.40   -7.61  Na3.467Al3.45Fe.017Si14.533O36:10.922H2O
  Clinozoisite    -33.03      8.80   41.83  Ca2Al3Si3O12(OH)
  CO(g)           -12.39    -15.42   -3.03  CO
  CO2(g)            0.88     -6.98   -7.86  CO2
  Coesite          -0.57     -3.71   -3.14  SiO2
  Cordierite_anhyd -45.94      4.40   50.35  Mg2Al4Si5O18
  Cordierite_hydr -43.51      4.40   47.91  Mg2Al4Si5O18:H2O
  Corundum         -8.13      9.44   17.57  Al2O3
  Cristobalite(alpha)  -0.31     -3.71   -3.39  SiO2
  Cristobalite(beta)  -0.74     -3.71   -2.96  SiO2
  Cronstedtite-7A -20.98     -5.48   15.50  Fe2Fe2SiO5(OH)4
  Daphnite-14A    -34.51     16.15   50.66  Fe5AlAlSi3O10(OH)8
  Daphnite-7A     -37.85     16.15   54.00  Fe5AlAlSi3O10(OH)8
  Dawsonite        -7.19     -3.05    4.13  NaAlCO3(OH)2
  Diaspore         -2.12      4.72    6.84  AlHO2
  Dicalcium_silicate -34.47      2.05   36.52  Ca2SiO4
  Diopside        -23.02     -2.51   20.52  CaMgSi2O6
  Dolomite        -11.37     -9.06    2.31  CaMg(CO3)2
  Dolomite-dis    -12.87     -9.06    3.81  CaMg(CO3)2
  Dolomite-ord    -11.36     -9.06    2.30  CaMg(CO3)2
  Enstatite       -12.74     -1.68   11.06  MgSiO3
  Epidote         -32.08     -0.37   31.71  Ca2FeAl2Si3O12OH
  Epidote-ord     -32.07     -0.37   31.70  FeCa2Al2(OH)(SiO4)3
  Ettringite      -67.47     -6.05   61.43  Ca6Al2(SO4)3(OH)12:26H2O
  Fayalite        -15.21      3.43   18.64  Fe2SiO4
  Fe              -21.95     36.03   57.98  Fe
  Fe(OH)2         -10.06      3.57   13.63  Fe(OH)2
  Fe(OH)3          -9.86     -4.46    5.41  Fe(OH)3
  Fe2(SO4)3       -43.97    -41.62    2.35  Fe2(SO4)3
  FeO              -9.66      3.57   13.23  FeO
  Ferrite-Ca      -26.79     -6.03   20.76  CaFe2O4
  Ferrite-Dicalcium -58.62     -3.15   55.48  Ca2Fe2O5
  Ferrite-Mg      -27.13     -6.88   20.24  MgFe2O4
  Ferrosilite      -7.39     -0.14    7.25  FeSiO3
  FeSO4            -9.74     -7.34    2.40  FeSO4
  Forsterite      -26.89      0.34   27.24  Mg2SiO4
  Foshagite       -64.40      0.40   64.80  Ca4Si3O9(OH)2:0.5H2O
  Gehlenite       -43.37     11.49   54.86  Ca2Al2SiO7
  Gibbsite         -2.74      4.72    7.45  Al(OH)3
  Goethite         -4.81     -4.45    0.36  FeOOH
  Greenalite      -18.84      3.29   22.13  Fe3Si2O5(OH)4
  Grossular       -43.62      6.96   50.58  Ca3Al2(SiO4)3
  Gypsum           -3.49     -8.03   -4.53  CaSO4:2H2O
  Gyrolite        -27.94     -5.36   22.58  Ca2Si3O7(OH)2:1.5H2O
  H2(g)            -9.75    -12.87   -3.11  H2
  H2O(g)           -1.46     -0.00    1.46  H2O
  H2S(g)           -8.93    -16.91   -7.98  H2S
  Halite          -10.36     -8.79    1.57  NaCl
  Hatrurite       -67.21      4.93   72.14  Ca3SiO5
  Hedenbergite    -20.15     -0.96   19.19  CaFe(SiO3)2
  Hematite         -8.63     -8.91   -0.28  Fe2O3
  Hercynite       -14.83     13.01   27.84  FeAl2O4
  Hillebrandite   -34.15      2.05   36.21  Ca2SiO3(OH)2:0.17H2O
  Huntite         -28.72    -18.97    9.75  CaMg3(CO3)4
  Hydromagnesite  -47.71    -17.81   29.91  Mg5(CO3)4(OH)2:4H2O
  Hydrophilite    -24.64    -13.12   11.52  CaCl2
  Ice              -0.16     -0.00    0.16  H2O
  Jadeite         -11.56     -3.48    8.08  NaAl(SiO3)2
  Kaolinite        -4.28      2.02    6.30  Al2Si2O5(OH)4
  KerogenC128    -1483.77   9104.1010587.87  C128H68O7
  KerogenC292    -3385.75  23054.1026439.85  C292H288O12
  KerogenC515    -7009.78  40439.4147449.19  C515H596O72
  Kyanite          -9.23      5.73   14.97  Al2SiO5
  Larnite         -35.74      2.05   37.79  Ca2SiO4
  Laumontite      -15.52     -2.51   13.01  CaAl2Si4O12:4H2O
  Lawrencite      -21.25    -12.43    8.82  FeCl2
  Lawsonite       -16.52      4.90   21.43  CaAl2Si2O7(OH)2:H2O
  Lime            -29.15      2.88   32.03  CaO
  Lizardite       -31.36     -1.34   30.02  Mg3Si2O5(OH)4
  Magnesite        -7.11     -4.96    2.15  MgCO3
  Magnetite       -15.16     -5.34    9.82  Fe3O4
  Margarite       -25.13     14.35   39.48  CaAl4Si2O10(OH)2
  Mayenite       -382.26    100.64  482.90  Ca12Al14O33
  Melanterite      -4.98     -7.35   -2.37  FeSO4:7H2O
  Merwinite       -63.96      3.25   67.21  MgCa3(SiO4)2
  Mesolite        -13.41     -0.41   13.00  Na.676Ca.657Al1.99Si3.01O10:2.647H2O
  Mg              -85.95     34.49  120.44  Mg
  MgOHCl          -21.53     -5.97   15.56  MgOHCl
  MgSO4           -13.46     -8.88    4.58  MgSO4
  Minnesotaite    -17.67     -4.12   13.55  Fe3Si4O10(OH)2
  Mirabilite      -11.57    -12.50   -0.92  Na2SO4:10H2O
  Molysite        -41.50    -28.45   13.04  FeCl3
  Monohydrocalcite  -6.73     -4.10    2.62  CaCO3:H2O
  Monticellite    -27.79      1.20   28.99  CaMgSiO4
  Montmor-Ca       -7.71     -5.82    1.88  Ca.175Mg.35Al1.65Si4O10(OH)2
  Montmor-Mg       -7.21     -5.97    1.23  Mg.525Al1.65Si4O10(OH)2
  Montmor-Na       -8.57     -6.60    1.97  Na.35Mg.35Al1.65Si4O10(OH)2
  Mordenite        -8.47    -13.77   -5.31  Ca.2895Na.361Al.94Si5.06O12:3.468H2O
  Na              -50.87     15.44   66.31  Na
  Na2CO3          -19.61     -8.56   11.05  Na2CO3
  Na2CO3:7H2O     -18.59     -8.57   10.02  Na2CO3:7H2O
  Na2O            -68.01     -1.58   66.44  Na2O
  Na2SiO3         -27.26     -5.28   21.97  Na2SiO3
  NaFeO2          -24.67     -5.24   19.43  NaFeO2
  Nahcolite        -7.68     -7.77   -0.10  NaHCO3
  Natrolite       -21.14     -3.26   17.88  Na2Al2Si3O10:2H2O
  Natron          -18.30     -8.57    9.73  Na2CO3:10H2O
  Natrosilite     -26.91     -8.99   17.92  Na2Si2O5
  Nepheline       -13.15      0.23   13.38  NaAlSiO4
  Nesquehonite    -10.13     -4.96    5.17  MgCO3:3H2O
  Nontronite-Ca   -10.53    -20.28   -9.75  Ca.175Fe2Al.35Si3.65H2O12
  Nontronite-Mg    -9.85    -20.43  -10.58  Mg.175Fe2Al.35Si3.65H2O12
  Nontronite-Na   -10.77    -21.06  -10.29  Na.35Fe2Al.35Si3.65H2O12
  Ntg(g)           -0.41     -3.62   -3.21  Ntg
  O2(g)           -61.99    -64.92   -2.93  O2
  Okenite         -14.80     -4.53   10.26  CaSi2O4(OH)2:H2O
  Paragonite      -14.37      2.25   16.62  NaAl3Si3O10(OH)2
  Pargasite       -94.26      5.00   99.26  NaCa2Al3Mg4Si6O22(OH)2
  Periclase       -18.88      2.03   20.91  MgO
  Portlandite     -19.31      2.88   22.19  Ca(OH)2
  Prehnite        -27.85      4.08   31.93  Ca2Al2Si3O10(OH)2
  Pseudowollastonite -14.57     -0.83   13.74  CaSiO3
  Pyrite           -4.36    -28.76  -24.39  FeS2
  Pyrophyllite     -5.40     -5.39    0.01  Al2Si4O10(OH)2
  Pyrrhotite       -9.58    -13.35   -3.76  FeS
  Quartz            0.23     -3.71   -3.93  SiO2
  Rankinite       -49.75      1.23   50.98  Ca3Si2O7
  Riebeckite      -37.83    -29.43    8.40  Na2Fe5Si8O22(OH)2
  Ripidolite      -60.17     11.53   71.70  Mg3Fe2Al2Si3O10(OH)8
  S                -5.00    -49.37  -44.37  S
  Saponite-Fe-Ca  -20.44     -0.67   19.78  Ca.175Fe3Al.35Si3.65O10(OH)2
  Saponite-Fe-Fe  435.70     -0.55 -436.25  Fe3.175Al.35Si3.65O10(OH)2
  Saponite-Fe-Mg  -19.76     -0.82   18.94  Mg.175Fe3Al.35Si3.65O10(OH)2
  Saponite-Fe-Na  -20.66     -1.45   19.21  Na.35Fe3Al.35Si3.65O10(OH)2
  Saponite-Mg-Ca  -33.72     -5.30   28.43  Ca.175Mg3Al.35Si3.65O10(OH)2
  Saponite-Mg-Fe  -32.18     -5.18   27.01  Fe.175Mg3Al.35Si3.65O10(OH)2
  Saponite-Mg-Mg  -33.02     -5.45   27.58  Mg3.175Al.35Si3.65O10(OH)2
  Saponite-Mg-Na  -33.96     -6.08   27.89  Na.35Mg3Al.35Si3.65O10(OH)2
  Scolecite       -13.99      1.20   15.18  CaAl2Si3O10:3H2O
  Sepiolite       -43.94    -14.15   29.79  Mg4Si6O15(OH)2:6H2O
  Si              -85.22     61.22  146.44  Si
  Siderite         -3.11     -3.41   -0.31  FeCO3
  Sillimanite      -9.85      5.73   15.58  Al2SiO5
  SiO2(am)         -1.02     -3.71   -2.68  SiO2
  SO2(g)          -15.22    -15.13    0.10  SO2
  Spinel          -25.03     11.47   36.50  Al2MgO4
  Talc            -29.33     -8.75   20.58  Mg3Si4O10(OH)2
  Thenardite      -12.12    -12.48   -0.36  Na2SO4
  Thermonatrite   -19.42     -8.56   10.86  Na2CO3:H2O
  Tobermorite-11A -72.44     -7.84   64.60  Ca5Si6H11O22.5
  Tremolite       -73.57    -13.76   59.81  Ca2Mg5Si8O22(OH)2
  Tridymite         0.05     -3.71   -3.75  SiO2
  Troilite         -9.48    -13.35   -3.86  FeS
  Wairakite       -19.77     -2.51   17.27  CaAl2Si4O10(OH)4
  Wollastonite    -14.34     -0.83   13.51  CaSiO3
  Wustite          -9.59      2.53   12.12  Fe.947O
  Xonotlite       -95.34     -4.96   90.39  Ca6Si6O17(OH)2
  Zoisite         -33.07      8.80   41.87  Ca2Al3(SiO4)3OH

**For a gas, SI = log10(fugacity). Fugacity = pressure * phi / 1 atm.
  For ideal gases, phi = 1.

Reaction step 3.

Using solution 1.	Rainwater
Using kinetics 1.	

Kinetics 1.	

	Time step: 318732 seconds  (Incremented time: 956196 seconds)

	Rate name       Delta Moles Total Moles   Reactant        Coefficient

	SiO2(am)         -0.000e+00   0.000e+00   SiO2                      1
	Albite           -9.038e-07   1.900e-02   NaAlSi3O8                 1
	Anorthite        -3.627e-05   5.269e-02   CaAl2(SiO4)2              1
	Bytownite        -1.742e-04   6.666e-03   CaAl2(SiO4)2              1
	K-Feldspar       -0.000e+00   0.000e+00   KAlSi3O8                  1
	Nepheline        -0.000e+00   0.000e+00   NaAlSiO4                  1
	Forsterite       -1.409e-03   6.857e-01   Mg2SiO4                   1
	Fayalite         -0.000e+00   0.000e+00   Fe2SiO4                   1
	Grossular        -0.000e+00   0.000e+00   Ca3Al2(SiO4)3             1
	Andradite        -0.000e+00   0.000e+00   Ca3Fe2(SiO4)3             1
	Kyanite          -0.000e+00   0.000e+00   Al2SiO5                   1
	Epidote          -0.000e+00   0.000e+00   Ca2FeAl2Si3O12OH           1
	Zoisite          -0.000e+00   0.000e+00   Ca2Al3(SiO4)3OH           1
	Cordierite_anhyd  -0.000e+00   0.000e+00   Mg2Al4Si5O18              1
	Diopside         -0.000e+00   0.000e+00   CaMgSi2O6                 1
	Enstatite        -3.583e-06   3.500e-01   MgSiO3                    1
	Jadeite          -0.000e+00   0.000e+00   NaAl(SiO3)2               1
	Wollastonite     -0.000e+00   0.000e+00   CaSiO3                    1
	Anthophyllite    -0.000e+00   0.000e+00   Mg7Si8O22(OH)2            1
	Riebeckite       -0.000e+00   0.000e+00   Na2Fe5Si8O22(OH)2           1
	Tremolite        -0.000e+00   0.000e+00   Ca2Mg5Si8O22(OH)2           1
	Muscovite        -0.000e+00   0.000e+00   KAl3Si3O10(OH)2           1
	Paragonite       -0.000e+00   0.000e+00   NaAl3Si3O10(OH)2           1
	Phlogopite       -0.000e+00   0.000e+00   KAlMg3Si3O10(OH)2           1
	Annite           -0.000e+00   0.000e+00   KFe3AlSi3O10(OH)2           1
	Pyrophyllite     -0.000e+00   0.000e+00   Al2Si4O10(OH)2            1
	Kaolinite        -0.000e+00   0.000e+00   Al2Si2O5(OH)4             1
	Montmor-K        -0.000e+00   0.000e+00   K.35Mg.35Al1.65Si4O10(OH)2           1
	Smectite-low-Fe-Mg  -0.000e+00   0.000e+00   Ca.02Na.15K.2Fe.29Fe.16Mg.9Al1.25Si3.75H2O12           1
	Lizardite        -0.000e+00   0.000e+00   Mg3Si2O5(OH)4             1
	Chrysotile       -0.000e+00   0.000e+00   Mg3Si2O5(OH)4             1
	Clinochlore-14A  -0.000e+00   0.000e+00   Mg5AlAlSi3O10(OH)8           1
	Daphnite-14A     -0.000e+00   0.000e+00   Fe5AlAlSi3O10(OH)8           1
	Talc             -0.000e+00   0.000e+00   Mg3Si4O10(OH)2            1
	Prehnite         -0.000e+00   0.000e+00   Ca2Al2Si3O10(OH)2           1
	Goethite         -0.000e+00   0.000e+00   FeOOH                     1
	Hematite         -0.000e+00   0.000e+00   Fe2O3                     1
	Magnetite        -0.000e+00   0.000e+00   Fe3O4                     1
	Brucite          -0.000e+00   0.000e+00   Mg(OH)2                   1
	Gibbsite         -0.000e+00   0.000e+00   Al(OH)3                   1
	Diaspore         -0.000e+00   0.000e+00   AlHO2                     1
	Calcite          -0.000e+00   0.000e+00   CaCO3                     1
	Dolomite-dis     -0.000e+00   0.000e+00   CaMg(CO3)2                1
	Dolomite-ord     -0.000e+00   0.000e+00   CaMg(CO3)2                1
	Magnesite        -0.000e+00   0.000e+00   MgCO3                     1
	Gypsum           -0.000e+00   0.000e+00   CaSO4:2H2O                1
	Anhydrite        -0.000e+00   0.000e+00   CaSO4                     1
	Pyrite           -2.017e-08   2.700e-03   FeS2                      1
	Pyrrhotite       -0.000e+00   0.000e+00   FeS                       1
	Halite           -0.000e+00   0.000e+00   NaCl                      1

-----------------------------Solution composition------------------------------

	Elements           Molality       Moles

	Al                1.820e-06   1.292e-03
	C                 2.273e-01   1.614e+02
	Ca                5.725e-05   4.064e-02
	Cl                4.226e-05   3.000e-02
	Fe                2.705e-04   1.920e-01
	Mg                1.210e-05   8.588e-03
	Na                4.226e-05   3.000e-02
	Ntg               2.415e-04   1.714e-01
	S                 2.500e-04   1.775e-01
	Si                1.995e-04   1.416e-01

----------------------------Description of solution----------------------------

                                       pH  =   3.613      Charge balance
                                       pe  =   1.297      Adjusted to redox equilibrium
                          Density (g/cm³)  =   0.99844
                               Volume (L)  = 718.19759
                        Activity of water  =   0.996
                           Ionic strength  =   1.563e-03
                       Mass of water (kg)  =   7.099e+02
                 Total alkalinity (eq/kg)  =   1.851e-04
                       Total CO2 (mol/kg)  =   2.273e-01
                         Temperature (°C)  =  29.84
                           Pressure (atm)  =  8.00
                  Electrical balance (eq)  =  -1.115e-12
 Percent error, 100*(Cat-|An|)/(Cat+|An|)  =  -0.00
                               Iterations  =  84
                                  Total H  = 7.883812e+04
                                  Total O  = 3.974291e+04

----------------------------Distribution of species----------------------------

                                               Log       Log       Log    mole V
   Species          Molality    Activity  Molality  Activity     Gamma   cm³/mol

   H+              2.544e-04   2.439e-04    -3.595    -3.613    -0.018      0.00
   OH-             5.908e-11   5.649e-11   -10.229   -10.248    -0.019     -3.93
   H2O             5.553e+01   9.961e-01     1.744    -0.002     0.000     18.09
Al            1.820e-06
   Al+3            1.731e-06   1.186e-06    -5.762    -5.926    -0.164    -42.47
   AlOH+2          8.952e-08   7.497e-08    -7.048    -7.125    -0.077    -27.85
   HAlO2           7.770e-12   7.770e-12   -11.110   -11.110     0.000     13.23
   AlO2-           1.436e-14   1.374e-14   -13.843   -13.862    -0.019     10.31
   Al(CH3COO)2+    0.000e+00   0.000e+00   -51.063   -51.082    -0.019     49.72
C(-2)         0.000e+00
   C2H4            0.000e+00   0.000e+00   -44.613   -44.613     0.000     46.08
C(-3)         2.438e-37
   C2H6            1.219e-37   1.219e-37   -36.914   -36.914     0.000     51.60
C(-4)         2.311e-19
   CH4             2.311e-19   2.311e-19   -18.636   -18.636     0.000     37.70
C(2)          4.199e-16
   CO              4.199e-16   4.199e-16   -15.377   -15.377     0.000     33.98
C(4)          2.273e-01
   CO2             2.269e-01   2.270e-01    -0.644    -0.644     0.000     33.59
   HCO3-           4.453e-04   4.259e-04    -3.351    -3.371    -0.019     24.85
   NaHCO3          2.264e-08   2.264e-08    -7.645    -7.645     0.000      1.80
   CO3-2           1.020e-10   8.544e-11    -9.991   -10.068    -0.077     -5.14
   CaCO3           1.034e-11   1.034e-11   -10.985   -10.985     0.000    -15.60
   MgCO3           9.344e-13   9.344e-13   -12.029   -12.029     0.000    -18.13
   HCOOH           1.705e-13   1.705e-13   -12.768   -12.768     0.000     35.03
   HCOO-           1.132e-13   1.082e-13   -12.946   -12.966    -0.019     26.18
   CH3COOH         4.571e-24   4.571e-24   -23.340   -23.340     0.000     52.37
   CH3COO-         3.297e-25   3.154e-25   -24.482   -24.501    -0.019     40.52
   CH3OH           2.706e-26   2.706e-26   -25.568   -25.568     0.000     38.19
   FeCH3COO+       1.529e-27   1.462e-27   -26.816   -26.835    -0.019     24.12
   CH2O            8.218e-28   8.218e-28   -27.085   -27.085     0.000     27.26
   CaCH3COO+       1.420e-28   1.358e-28   -27.848   -27.867    -0.019     29.63
   MgCH3COO+       6.170e-29   5.902e-29   -28.210   -28.229    -0.019     25.68
   NaCH3COO        1.066e-29   1.066e-29   -28.972   -28.972     0.000     48.63
   CH3CH2OH        1.918e-40   1.918e-40   -39.717   -39.717     0.000     55.09
   Fe(CH3COO)2     0.000e+00   0.000e+00   -50.159   -50.159     0.000     76.72
   Al(CH3COO)2+    0.000e+00   0.000e+00   -51.063   -51.082    -0.019     49.72
   Ca(CH3COO)2     0.000e+00   0.000e+00   -51.161   -51.161     0.000     82.73
   Mg(CH3COO)2     0.000e+00   0.000e+00   -51.982   -51.982     0.000     78.38
   C3H8            0.000e+00   0.000e+00   -53.290   -53.290     0.000     66.01
   Na(CH3COO)2-    0.000e+00   0.000e+00   -53.844   -53.863    -0.019    103.82
Ca            5.725e-05
   Ca+2            5.581e-05   4.689e-05    -4.253    -4.329    -0.076    -18.03
   CaSO4           1.442e-06   1.442e-06    -5.841    -5.841     0.000      7.69
   CaCl+           4.267e-10   4.082e-10    -9.370    -9.389    -0.019      5.90
   CaCO3           1.034e-11   1.034e-11   -10.985   -10.985     0.000    -15.60
[...]
                           Ionic strength  =   2.439e-03
                       Mass of water (kg)  =   7.099e+02
                 Total alkalinity (eq/kg)  =   8.724e-04
                       Total CO2 (mol/kg)  =   2.273e-01
                         Temperature (°C)  =  29.84
                           Pressure (atm)  =  8.00
                  Electrical balance (eq)  =   4.743e-08
 Percent error, 100*(Cat-|An|)/(Cat+|An|)  =   0.00
                               Iterations  =  52
                                  Total H  = 7.883812e+04
                                  Total O  = 3.974340e+04

----------------------------Distribution of species----------------------------

                                               Log       Log       Log    mole V
   Species          Molality    Activity  Molality  Activity     Gamma   cm³/mol

   H+              1.165e-04   1.108e-04    -3.933    -3.956    -0.022      0.00
   OH-             1.315e-10   1.244e-10    -9.881    -9.905    -0.024     -3.92
   H2O             5.553e+01   9.961e-01     1.744    -0.002     0.000     18.09
Al            2.799e-05
   Al+3            2.523e-05   1.592e-05    -4.598    -4.798    -0.200    -42.40
   AlOH+2          2.759e-06   2.217e-06    -5.559    -5.654    -0.095    -27.81
   HAlO2           1.114e-09   1.114e-09    -8.953    -8.953     0.000     13.23
   AlO2-           4.583e-12   4.338e-12   -11.339   -11.363    -0.024     10.32
   Al(CH3COO)2+    0.000e+00   0.000e+00   -45.067   -45.091    -0.024     49.73
C(-2)         0.000e+00
   C2H4            0.000e+00   0.000e+00   -41.480   -41.480     0.000     46.08
C(-3)         1.105e-33
   C2H6            5.523e-34   5.523e-34   -33.258   -33.258     0.000     51.60
C(-4)         2.839e-17
   CH4             2.839e-17   2.839e-17   -16.547   -16.547     0.000     37.70
C(2)          1.396e-15
   CO              1.396e-15   1.396e-15   -14.855   -14.855     0.000     33.98
C(4)          2.273e-01
   CO2             2.264e-01   2.265e-01    -0.645    -0.645     0.000     33.59
   HCO3-           9.887e-04   9.359e-04    -3.005    -3.029    -0.024     24.86
   NaHCO3          4.932e-08   4.932e-08    -7.307    -7.307     0.000      1.80
   CO3-2           5.145e-10   4.135e-10    -9.289    -9.384    -0.095     -5.10
   MgCO3           1.099e-10   1.099e-10    -9.959    -9.959     0.000    -18.13
   CaCO3           5.923e-11   5.923e-11   -10.227   -10.227     0.000    -15.60
   HCOO-           8.374e-13   7.923e-13   -12.077   -12.101    -0.024     26.19
   HCOOH           5.668e-13   5.668e-13   -12.247   -12.247     0.000     35.03
   CH3COOH         5.603e-22   5.603e-22   -21.252   -21.252     0.000     52.37
   CH3COO-         8.993e-23   8.516e-23   -22.046   -22.070    -0.024     40.53
   CH3OH           9.980e-25   9.980e-25   -24.001   -24.001     0.000     38.19
   MgCH3COO+       4.089e-25   3.870e-25   -24.388   -24.412    -0.024     25.69
   FeCH3COO+       4.008e-25   3.794e-25   -24.397   -24.421    -0.024     24.12
   CaCH3COO+       4.584e-26   4.339e-26   -25.339   -25.363    -0.024     29.64
   CH2O            9.099e-27   9.099e-27   -26.041   -26.041     0.000     27.26
   NaCH3COO        2.854e-27   2.854e-27   -26.545   -26.545     0.000     48.63
   CH3CH2OH        2.609e-37   2.609e-37   -36.584   -36.584     0.000     55.09
   Al(CH3COO)2+    0.000e+00   0.000e+00   -45.067   -45.091    -0.024     49.73
   Fe(CH3COO)2     0.000e+00   0.000e+00   -45.313   -45.313     0.000     76.72
   Mg(CH3COO)2     0.000e+00   0.000e+00   -45.734   -45.734     0.000     78.38
   Ca(CH3COO)2     0.000e+00   0.000e+00   -46.225   -46.225     0.000     82.73
   C3H8            0.000e+00   0.000e+00   -48.067   -48.067     0.000     66.01
   Na(CH3COO)2-    0.000e+00   0.000e+00   -48.981   -49.005    -0.024    103.83
Ca            7.030e-05
   Ca+2            6.872e-05   5.550e-05    -4.163    -4.256    -0.093    -17.99
   CaSO4           1.573e-06   1.573e-06    -5.803    -5.803     0.000      7.69
   CaCl+           5.049e-10   4.779e-10    -9.297    -9.321    -0.024      5.91
   CaCO3           5.923e-11   5.923e-11   -10.227   -10.227     0.000    -15.60
   CaCl2           2.139e-14   2.139e-14   -13.670   -13.670     0.000     32.98
   CaCH3COO+       4.584e-26   4.339e-26   -25.339   -25.363    -0.024     29.64
   Ca(CH3COO)2     0.000e+00   0.000e+00   -46.225   -46.225     0.000     82.73
Cl(-1)        4.226e-05
   Cl-             4.224e-05   3.995e-05    -4.374    -4.398    -0.024     18.21
   MgCl+           7.774e-09   7.359e-09    -8.109    -8.133    -0.024      1.36
   FeCl+           6.873e-09   6.506e-09    -8.163    -8.187    -0.024      1.18
   HCl             1.002e-09   1.002e-09    -8.999    -8.999     0.000     -1.78
   CaCl+           5.049e-10   4.779e-10    -9.297    -9.321    -0.024      5.91
   NaCl            2.910e-10   2.910e-10    -9.536    -9.536     0.000     24.29
   CaCl2           2.139e-14   2.139e-14   -13.670   -13.670     0.000     32.98
   FeCl2           1.429e-15   1.429e-15   -14.845   -14.845     0.000     27.74
   FeCl+2          1.267e-21   1.018e-21   -20.897   -20.992    -0.095    -18.34
Cl(1)         0.000e+00
   ClO-            0.000e+00   0.000e+00   -52.328   -52.352    -0.024      0.73
Cl(3)         0.000e+00
   ClO2-           0.000e+00   0.000e+00   -93.231   -93.255    -0.024     22.27
Cl(5)         0.000e+00
   ClO3-           0.000e+00   0.000e+00  -120.501  -120.525    -0.024     37.18
Cl(7)         0.000e+00
   ClO4-           0.000e+00   0.000e+00  -152.037  -152.061    -0.024     44.88
Fe(2)         2.705e-04
   Fe+2            2.704e-04   2.184e-04    -3.568    -3.661    -0.093    -21.74
   FeCl+           6.873e-09   6.506e-09    -8.163    -8.187    -0.024      1.18
   FeOH+           9.422e-10   8.919e-10    -9.026    -9.050    -0.024    -16.48
   FeCl2           1.429e-15   1.429e-15   -14.845   -14.845     0.000     27.74
   FeCH3COO+       4.008e-25   3.794e-25   -24.397   -24.421    -0.024     24.12
   Fe(CH3COO)2     0.000e+00   0.000e+00   -45.313   -45.313     0.000     76.72
Fe(3)         8.709e-15
   FeOH+2          8.519e-15   6.846e-15   -14.070   -14.165    -0.095    -24.87
   Fe+3            1.903e-16   1.200e-16   -15.721   -15.921    -0.200    -36.93
   FeCl+2          1.267e-21   1.018e-21   -20.897   -20.992    -0.095    -18.34
H(0)          1.001e-12
   H2              5.003e-13   5.006e-13   -12.301   -12.300     0.000     25.52
Mg            3.034e-04
   Mg+2            2.901e-04   2.357e-04    -3.537    -3.628    -0.090    -21.88
   MgSO4           1.330e-05   1.330e-05    -4.876    -4.876     0.000      6.03
   MgCl+           7.774e-09   7.359e-09    -8.109    -8.133    -0.024      1.36
   MgCO3           1.099e-10   1.099e-10    -9.959    -9.959     0.000    -18.13
   MgCH3COO+       4.089e-25   3.870e-25   -24.388   -24.412    -0.024     25.69
   Mg(CH3COO)2     0.000e+00   0.000e+00   -45.734   -45.734     0.000     78.38
Na            4.236e-05
   Na+             4.231e-05   4.005e-05    -4.374    -4.397    -0.024     -1.19
   NaHCO3          4.932e-08   4.932e-08    -7.307    -7.307     0.000      1.80
   NaCl            2.910e-10   2.910e-10    -9.536    -9.536     0.000     24.29
   NaHSiO3         7.794e-13   7.794e-13   -12.108   -12.108     0.000     12.94
   NaOH            8.510e-16   8.510e-16   -15.070   -15.070     0.000      3.67
   NaCH3COO        2.854e-27   2.854e-27   -26.545   -26.545     0.000     48.63
   Na(CH3COO)2-    0.000e+00   0.000e+00   -48.981   -49.005    -0.024    103.83
Ntg           2.415e-04
   Ntg             2.415e-04   2.416e-04    -3.617    -3.617     0.000     29.29
O(0)         -1.404e-12
   HCOO-           8.374e-13   7.923e-13   -12.077   -12.101    -0.024     26.19
   HCOOH           5.668e-13   5.668e-13   -12.247   -12.247     0.000     35.03
   CH3COOH         5.603e-22   5.603e-22   -21.252   -21.252     0.000     52.37
   CH3COO-         8.993e-23   8.516e-23   -22.046   -22.070    -0.024     40.53
   CH3OH           9.980e-25   9.980e-25   -24.001   -24.001     0.000     38.19
   MgCH3COO+       4.089e-25   3.870e-25   -24.388   -24.412    -0.024     25.69
   FeCH3COO+       4.008e-25   3.794e-25   -24.397   -24.421    -0.024     24.12
   CaCH3COO+       4.584e-26   4.339e-26   -25.339   -25.363    -0.024     29.64
   CH2O            9.099e-27   9.099e-27   -26.041   -26.041     0.000     27.26
   NaCH3COO        2.854e-27   2.854e-27   -26.545   -26.545     0.000     48.63
   S4O6-2          1.507e-28   1.209e-28   -27.822   -27.918    -0.096     56.90
   S2O6-2          2.432e-33   1.951e-33   -32.614   -32.710    -0.096     40.65
   CH3CH2OH        2.609e-37   2.609e-37   -36.584   -36.584     0.000     55.09
   S3O6-2          8.173e-39   6.557e-39   -38.088   -38.183    -0.096     42.16
   Al(CH3COO)2+    0.000e+00   0.000e+00   -45.067   -45.091    -0.024     49.73
   Fe(CH3COO)2     0.000e+00   0.000e+00   -45.313   -45.313     0.000     76.72
   Mg(CH3COO)2     0.000e+00   0.000e+00   -45.734   -45.734     0.000     78.38
   S5O6-2          0.000e+00   0.000e+00   -46.147   -46.242    -0.096     45.80
   Ca(CH3COO)2     0.000e+00   0.000e+00   -46.225   -46.225     0.000     82.73
   C3H8            0.000e+00   0.000e+00   -48.067   -48.067     0.000     66.01
   Na(CH3COO)2-    0.000e+00   0.000e+00   -48.981   -49.005    -0.024    103.83
   O2              0.000e+00   0.000e+00   -66.057   -66.057     0.000     30.75
S(-2)         3.681e-09
   H2S             3.677e-09   3.677e-09    -8.434    -8.434     0.000     37.17
   HS-             3.972e-12   3.759e-12   -11.401   -11.425    -0.024     20.81
   S2-2            7.398e-24   5.936e-24   -23.131   -23.227    -0.096     20.29
   S3-2            7.189e-27   5.768e-27   -26.143   -26.239    -0.096     29.36
   S4-2            4.170e-30   3.346e-30   -29.380   -29.475    -0.096     38.33
   S5-2            1.481e-33   1.188e-33   -32.829   -32.925    -0.096     47.29
S(2)          1.162e-14
   S2O3-2          5.812e-15   4.663e-15   -14.236   -14.331    -0.096     29.05
S(3)          6.281e-33
   S2O4-2          3.140e-33   2.528e-33   -32.503   -32.597    -0.094     28.97
S(4)          5.755e-14
   HSO3-           5.701e-14   5.396e-14   -13.244   -13.268    -0.024     39.59
   SO2             5.095e-16   5.095e-16   -15.293   -15.293     0.000     38.40
   SO3-2           3.371e-17   2.709e-17   -16.472   -16.567    -0.095     -3.17
   S4O6-2          1.507e-28   1.209e-28   -27.822   -27.918    -0.096     56.90
   S2O6-2          2.432e-33   1.951e-33   -32.614   -32.710    -0.096     40.65
   S3O6-2          8.173e-39   6.557e-39   -38.088   -38.183    -0.096     42.16
   S5O6-2          0.000e+00   0.000e+00   -46.147   -46.242    -0.096     45.80
S(5)          1.058e-31
   S2O5-2          5.288e-32   4.243e-32   -31.277   -31.372    -0.096     34.10
S(6)          2.500e-04
   SO4-2           2.326e-04   1.866e-04    -3.633    -3.729    -0.096     15.09
   MgSO4           1.330e-05   1.330e-05    -4.876    -4.876     0.000      6.03
   HSO4-           2.513e-06   2.379e-06    -5.600    -5.624    -0.024     40.57
   CaSO4           1.573e-06   1.573e-06    -5.803    -5.803     0.000      7.69
S(7)          0.000e+00
   S2O8-2          0.000e+00   0.000e+00   -70.213   -70.309    -0.096     79.52
S(8)          0.000e+00
   HSO5-           0.000e+00   0.000e+00   -57.558   -57.582    -0.024     50.68
Si            3.717e-04
   SiO2            3.717e-04   3.717e-04    -3.430    -3.430     0.000     15.72
   HSiO3-          4.787e-10   4.531e-10    -9.320    -9.344    -0.024      5.05
   NaHSiO3         7.794e-13   7.794e-13   -12.108   -12.108     0.000     12.94

------------------------------Saturation indices-------------------------------

  Phase               SI** log IAP   log K(302 K,   8 atm)

  [(6)(CB)(CB)S]  -11.42     50.76   62.19  S
  [(aro)-O-(aro)] -12.72    -33.03  -20.31  O
  Afwillite       -54.99      4.10   59.08  Ca3Si2O4(OH)6
  Akermanite      -39.70      4.73   44.43  Ca2MgSi2O7
  Al              -90.63     56.61  147.24  Al
  Al2(SO4)3       -38.67    -20.78   17.88  Al2(SO4)3
  Albite           -6.19     -3.67    2.52  NaAlSi3O8
  Albite_high      -7.47     -3.67    3.81  NaAlSi3O8
  Albite_low       -6.19     -3.67    2.52  NaAlSi3O8
  Amesite-14A     -34.54     38.53   73.06  Mg4Al4Si2O10(OH)8
  Analcime         -6.49     -0.64    5.85  Na.96Al.96Si2.04O6:H2O
  Andalusite       -4.52     10.70   15.23  Al2SiO5
  Andradite       -39.80     -7.44   32.36  Ca3Fe2(SiO4)3
  Anhydrite        -3.59     -7.98   -4.40  CaSO4
  Anorthite       -14.71     10.93   25.64  CaAl2(SiO4)2
  Anthophyllite   -62.61      2.53   65.15  Mg7Si8O22(OH)2
  Antigorite     -377.47     88.87  466.34  Mg48Si34O85(OH)62
  Aragonite        -5.23     -3.33    1.90  CaCO3
  Artinite        -17.69      1.57   19.26  Mg2CO3(OH)2:3H2O
  Bassanite        -4.23     -7.99   -3.76  CaSO4:0.5H2O
  Beidellite-Ca     1.06      4.72    3.67  Ca.175Al2.35Si3.65O10(OH)2
  Beidellite-Fe     2.59      4.83    2.24  Fe.175Al2.35Si3.65O10(OH)2
  Beidellite-Mg     2.00      4.83    2.84  Mg.175Al2.35Si3.65O10(OH)2
  Beidellite-Na     0.83      3.93    3.10  Na.35Al2.35Si3.65O10(OH)2
  Boehmite         -0.17      7.07    7.24  AlO2H
  Brucite         -11.69      4.28   15.97  Mg(OH)2
  Bytownite       -14.71     10.93   25.64  CaAl2(SiO4)2
  C                -3.97     59.07   63.05  C
  C2H4(g)         -39.13    -41.48   -2.35  C2H4
  C2H6(g)         -30.28    -33.26   -2.98  C2H6
  C3H8(g)         -45.16    -48.07   -2.91  C3H8
  Ca             -100.85     36.68  137.53  Ca
  Ca-Al_Pyroxene  -20.54     14.36   34.90  CaAl2SiO6
  Ca3Al2O6        -85.62     25.09  110.72  Ca3Al2O6
  Ca4Al2Fe2O10   -116.68     20.64  137.32  Ca4Al2Fe2O10
  CaAl2O4         -27.91     17.79   45.69  CaAl2O4
  CaAl4O7         -34.68     31.92   66.60  CaAl4O7
  Calcite          -5.08     -3.33    1.75  CaCO3
  CH4(g)          -13.66    -16.55   -2.88  CH4
  Chalcedony        0.24     -3.43   -3.67  SiO2
  Chamosite       -24.17     25.08   49.25  Fe5Al2Si3O10(OH)8
  Chloromagnesite -33.79    -12.42   21.37  MgCl2
  Chrysotile      -24.44      5.98   30.43  Mg3Si2O5(OH)4
  Clinochlore-14A -40.11     25.25   65.35  Mg5Al2Si3O10(OH)8
  Clinochlore-7A  -43.44     25.25   68.69  Mg5Al2Si3O10(OH)8
  Clinoptilolite-Ca -11.53    -19.22   -7.69  Ca1.7335Al3.45Fe.017Si14.533O36:10.922H2O
  Clinoptilolite-Na -19.48    -27.09   -7.61  Na3.467Al3.45Fe.017Si14.533O36:10.922H2O
  Clinozoisite    -23.62     18.22   41.83  Ca2Al3Si3O12(OH)
  CO(g)           -11.82    -14.86   -3.03  CO
  CO2(g)            0.88     -6.98   -7.86  CO2
  Coesite          -0.29     -3.43   -3.14  SiO2
  Cordierite_anhyd -30.67     19.68   50.35  Mg2Al4Si5O18
  Cordierite_hydr -28.23     19.68   47.91  Mg2Al4Si5O18:H2O
  Corundum         -3.44     14.13   17.57  Al2O3
  Cristobalite(alpha)  -0.04     -3.43   -3.39  SiO2
  Cristobalite(beta)  -0.47     -3.43   -2.96  SiO2
  Cronstedtite-7A -18.55     -3.05   15.50  Fe2Fe2SiO5(OH)4
  Daphnite-14A    -25.58     25.08   50.66  Fe5AlAlSi3O10(OH)8
  Daphnite-7A     -28.92     25.08   54.00  Fe5AlAlSi3O10(OH)8
  Dawsonite        -4.49     -0.36    4.13  NaAlCO3(OH)2
  Diaspore          0.23      7.07    6.84  AlHO2
  Dicalcium_silicate -32.64      3.88   36.52  Ca2SiO4
  Diopside        -19.44      1.08   20.52  CaMgSi2O6
  Dolomite         -8.34     -6.03    2.31  CaMg(CO3)2
  Dolomite-dis     -9.84     -6.03    3.81  CaMg(CO3)2
  Dolomite-ord     -8.33     -6.03    2.30  CaMg(CO3)2
  Enstatite       -10.21      0.85   11.06  MgSiO3
  Epidote         -24.61      7.09   31.71  Ca2FeAl2Si3O12OH
  Epidote-ord     -24.60      7.09   31.70  FeCa2Al2(OH)(SiO4)3
  Ettringite      -60.34      1.09   61.43  Ca6Al2(SO4)3(OH)12:26H2O
  Fayalite        -13.57      5.07   18.64  Fe2SiO4
  Fe              -20.70     37.28   57.98  Fe
  Fe(OH)2          -9.38      4.25   13.63  Fe(OH)2
  Fe(OH)3          -9.46     -4.06    5.41  Fe(OH)3
  Fe2(SO4)3       -45.38    -43.03    2.35  Fe2(SO4)3
  FeO              -8.98      4.25   13.23  FeO
  Ferrite-Ca      -25.22     -4.46   20.76  CaFe2O4
  Ferrite-Dicalcium -56.28     -0.80   55.48  Ca2Fe2O5
  Ferrite-Mg      -24.07     -3.83   20.24  MgFe2O4
  Ferrosilite      -6.43      0.82    7.25  FeSiO3
  FeSO4            -9.79     -7.39    2.40  FeSO4
  Forsterite      -22.10      5.13   27.24  Mg2SiO4
  Foshagite       -60.48      4.32   64.80  Ca4Si3O9(OH)2:0.5H2O
  Gehlenite       -36.85     18.01   54.86  Ca2Al2SiO7
  Gibbsite         -0.39      7.06    7.45  Al(OH)3
  Goethite         -4.42     -4.06    0.36  FeOOH
  Greenalite      -16.24      5.88   22.13  Fe3Si2O5(OH)4
  Grossular       -35.78     14.80   50.58  Ca3Al2(SiO4)3
  Gypsum           -3.45     -7.99   -4.53  CaSO4:2H2O
  Gyrolite        -25.56     -2.99   22.58  Ca2Si3O7(OH)2:1.5H2O
  H2(g)            -9.19    -12.30   -3.11  H2
  H2O(g)           -1.46     -0.00    1.46  H2O
  H2S(g)           -7.40    -15.38   -7.98  H2S
  Halite          -10.37     -8.80    1.57  NaCl
  Hatrurite       -64.61      7.53   72.14  Ca3SiO5
  Hedenbergite    -18.14      1.04   19.19  CaFe(SiO3)2
  Hematite         -7.83     -8.11   -0.28  Fe2O3
  Hercynite        -9.46     18.38   27.84  FeAl2O4
  Hillebrandite   -32.33      3.88   36.21  Ca2SiO3(OH)2:0.17H2O
  Huntite         -21.18    -11.43    9.75  CaMg3(CO3)4
  Hydromagnesite  -36.43     -6.53   29.91  Mg5(CO3)4(OH)2:4H2O
  Hydrophilite    -24.57    -13.05   11.52  CaCl2
  Ice              -0.16     -0.00    0.16  H2O
  Jadeite          -8.31     -0.24    8.08  NaAl(SiO3)2
  Kaolinite         0.97      7.27    6.30  Al2Si2O5(OH)4
  KerogenC128    -1323.40   9264.4710587.87  C128H68O7
  KerogenC292    -2979.97  23459.8926439.85  C292H288O12
  KerogenC515    -6297.96  41151.2347449.19  C515H596O72
  Kyanite          -4.27     10.70   14.97  Al2SiO5
  Larnite         -33.91      3.88   37.79  Ca2SiO4
  Laumontite       -8.95      4.06   13.01  CaAl2Si4O12:4H2O
  Lawrencite      -21.27    -12.46    8.82  FeCl2
  Lawsonite       -10.50     10.92   21.43  CaAl2Si2O7(OH)2:H2O
  Lime            -28.37      3.65   32.03  CaO
  Lizardite       -24.04      5.98   30.02  Mg3Si2O5(OH)4
  Magnesite        -4.85     -2.70    2.15  MgCO3
  Magnetite       -13.68     -3.86    9.82  Fe3O4
  Margarite       -14.42     25.06   39.48  CaAl4Si2O10(OH)2
  Mayenite       -340.12    142.77  482.90  Ca12Al14O33
  Melanterite      -5.04     -7.40   -2.37  FeSO4:7H2O
  Merwinite       -58.83      8.38   67.21  MgCa3(SiO4)2
  Mesolite         -7.16      5.83   13.00  Na.676Ca.657Al1.99Si3.01O10:2.647H2O
  Mg              -83.13     37.31  120.44  Mg
  MgOHCl          -19.63     -4.07   15.56  MgOHCl
  MgSO4           -11.93     -7.36    4.58  MgSO4
  Minnesotaite    -14.52     -0.97   13.55  Fe3Si4O10(OH)2
  Mirabilite      -11.62    -12.54   -0.92  Na2SO4:10H2O
  Molysite        -42.16    -29.12   13.04  FeCl3
  Monohydrocalcite  -5.95     -3.33    2.62  CaCO3:H2O
  Monticellite    -24.48      4.51   28.99  CaMgSiO4
  Montmor-Ca       -1.81      0.08    1.88  Ca.175Mg.35Al1.65Si4O10(OH)2
  Montmor-Mg       -1.05      0.19    1.23  Mg.525Al1.65Si4O10(OH)2
  Montmor-Na       -2.68     -0.72    1.97  Na.35Mg.35Al1.65Si4O10(OH)2
  Mordenite        -4.52     -9.82   -5.31  Ca.2895Na.361Al.94Si5.06O12:3.468H2O
  Na              -50.24     16.07   66.31  Na
  Na2CO3          -18.92     -7.87   11.05  Na2CO3
  Na2CO3:7H2O     -17.90     -7.88   10.02  Na2CO3:7H2O
  Na2O            -67.32     -0.89   66.44  Na2O
  Na2SiO3         -26.29     -4.32   21.97  Na2SiO3
  NaFeO2          -23.93     -4.50   19.43  NaFeO2
  Nahcolite        -7.33     -7.43   -0.10  NaHCO3
  Natrolite       -14.93      2.95   17.88  Na2Al2Si3O10:2H2O
  Natron          -17.61     -7.88    9.73  Na2CO3:10H2O
  Natrosilite     -25.67     -7.74   17.92  Na2Si2O5
  Nepheline       -10.18      3.19   1