   Input file: /Users/marc/Documents/Research/2017-2019_NPMP/Git/ExoCcycleGeo/ExoCcycleGeo/PHREEQC-3.1.2/io/PHREEQCOceanDissInput_nocrust
  Output file: /Users/marc/Documents/Research/2017-2019_NPMP/Git/ExoCcycleGeo/ExoCcycleGeo/PHREEQC-3.1.2/io/PHREEQCOceanDissInput_nocrust.out
Database file: /Users/marc/Documents/Research/2017-2019_NPMP/Git/ExoCcycleGeo/ExoCcycleGeo/PHREEQC-3.1.2/core10.dat

------------------
Reading data base.
------------------

	LLNL_AQUEOUS_MODEL_PARAMETERS
	SOLUTION_MASTER_SPECIES
	SOLUTION_SPECIES
	PHASES
------------------------------------
Reading input data for simulation 1.
------------------------------------

	TITLE ExoCcycleGeo generated speciation input using core10.dat
	SOLUTION 1 Planetary ocean surface waters (PHREEQC v3 manual p. 282)
		pH 	 	8.22 charge
		temp 	 	14.85
		pressure 	1
		pe 	 	12.3815
		water		7.9 #kg
		units		ppm
		Ca		412.3
		Mg		1291.8
		Na		10768.0 # default 10768.0
		K		399.1
		Fe		0.002
		Si		4.28
		Cl		19353.0
		C		141.682 # default: Alkalinity 141.682 as HCO3
		S(6)		2712.0
		N(5)		0.29 gfw 62.0
		N(-3)		0.03 as NH4
		O(0)		1.0 O2(g) -0.7
	EQUILIBRIUM_PHASES 1 Atmosphere, no rock
	  N2(g)                 -0.108		0.78 
	  O2(g)                 -0.700		0.2       
	  CO2(g)                -3.4		400e-6
	  CH4(g)                -5.74		1.8e-6
	  C2H4(g)        	0.0		0.0
	  C2H6(g)		0.0		0.0
	  C3H8(g)		0.0		0.0
	  CO(g)          	0.0		0.0
	  H2(g) 		0.0		0.0
	  H2O(g)         	0.0		0.0
	  H2S(g)         	0.0		0.0
	  NH3(g)         	0.0		0.0
	  NO(g)         	0.0		0.0
	  NO2(g)          	0.0		0.0
	  SO2(g) 		0.0		0.0
	  Anorthite       		0	0	# CaAl2(SiO4)2
	  Albite        		0	0	# NaAlSi3O8
	  Quartz			0	0	# SiO2
	  Annite          		0	0	# KFe3AlSi3O10(OH)2
	  Phlogopite			0	0	# KAlMg3Si3O10(OH)2
	  Daphnite-14A    		0	0	# Fe5AlAlSi3O10(OH)8
	  K-Feldspar      		0	0	# KAlSi3O8
	  Anthophyllite   		0	0	# Mg7Si8O22(OH)2
	  Tremolite			0	0	# Ca2Mg5Si8O22(OH)2
	  Afwillite   			0	0	# Ca3Si2O4(OH)6
	  Akermanite   			0	0	# Ca2MgSi2O7
	  Al           			0	0	# Al
	  Al2(SO4)3    			0	0	# Al2(SO4)3
	  Alabandite   			0	0	# MnS
	  Albite_high  			0	0	# NaAlSi3O8
	  Albite_low 			0	0	# NaAlSi3O8
	  Alum-K       			0	0	# KAl(SO4)2:12H2O
	  Alunite       		0	0	# KAl3(OH)6(SO4)2
	  Amesite-14A  			0	0	# Mg4Al4Si2O10(OH)8
	  Analcime    			0	0	# Na.96Al.96Si2.04O6:H2O
	  Andalusite   			0	0	# Al2SiO5
	  Andradite  			0	0	# Ca3Fe2(SiO4)3
	  Anhydrite  			0	0	# CaSO4
	  Antigorite       		0	0	# Mg48Si34O85(OH)62
	  Aragonite       		0	0	# CaCO3
	  Arcanite       		0	0	# K2SO4
	  Artinite        		0	0	# Mg2CO3(OH)2:3H2O
	  Atacamite       		0	0	# Cu4Cl2(OH)6
	  Azurite        		0	0	# Cu3(CO3)2(OH)2
	  B               		0	0	# B
	  B2O3           		0	0	# B2O3
	  Bassanite      		0	0	# CaSO4:0.5H2O
	  Bassetite      		0	0	# Fe(UO2)2(PO4)2
	  Beidellite-Ca   		0	0	# Ca.175Al2.35Si3.65O10(OH)2
	  Beidellite-Fe   		0	0	# Fe.175Al2.35Si3.65O10(OH)2
	  Beidellite-K   		0	0	# K.35Al2.35Si3.65O10(OH)2
	  Beidellite-Mg   		0	0	# Mg.175Al2.35Si3.65O10(OH)2
	  Beidellite-Na  		0	0	# Na.35Al2.35Si3.65O10(OH)2
	  Berlinite       		0	0	# AlPO4
	  Bieberite       		0	0	# CoSO4:7H2O
	  Bixbyite        		0	0	# Mn2O3
	  Boehmite         		0	0	# AlO2H
	  Borax          		0	0	# Na2(B4O5(OH)4):8H2O
	  Boric_acid     		0	0	# B(OH)3
	  Bornite          		0	0	# Cu5FeS4
	  Brezinaite      		0	0	# Cr3S4
	  Brochantite   		0	0	# Cu4(SO4)(OH)6
	  Brucite         		0	0	# Mg(OH)2
	  Bunsenite       		0	0	# NiO
	  C               		0	0	# C
	  Ca              		0	0	# Ca
	  Ca-Al_Pyroxene  		0	0	# CaAl2SiO6
	  Ca3Al2O6       		0	0	# Ca3Al2O6
	  Ca4Al2Fe2O10   		0	0	# Ca4Al2Fe2O10
	  CaAl2O4         		0	0	# CaAl2O4
	  CaAl4O7         		0	0	# CaAl4O7
	  Calcite         		0	0	# CaCO3
	  Cattierite     		0	0	# CoS2
	  CaUO4           		0	0	# CaUO4
	  Celadonite       		0	0	# KMgAlSi4O10(OH)2
	  Chalcanthite    		0	0	# CuSO4:5H2O
	  Chalcedony      		0	0	# SiO2
	  Chalcocite       		0	0	# Cu2S
	  Chalcocyanite   		0	0	# CuSO4
	  Chalcopyrite     		0	0	# CuFeS2
	  Chamosite         		0	0	# Fe5Al2Si3O10(OH)8
	  Chloromagnesite 		0	0	# MgCl2
	  Chromite         		0	0	# FeCr2O4
	  Chrysotile       		0	0	# Mg3Si2O5(OH)4
	  Clinochlore-14A  		0	0	# Mg5Al2Si3O10(OH)8
	  Clinochlore-7A   		0	0	# Mg5Al2Si3O10(OH)8
	  Clinoptilolite-Ca 		0	0	# Ca1.7335Al3.45Fe.017Si14.533O36:10.922H2O
	  Clinoptilolite-K 		0	0	# K3.467Al3.45Fe.017Si14.533O36:10.922H2O
	  Clinoptilolite-Na 		0	0	# Na3.467Al3.45Fe.017Si14.533O36:10.922H2O
	  Clinozoisite     		0	0	# Ca2Al3Si3O12(OH)
	  Co               		0	0	# Co
	  Co2SiO4         		0	0	# Co2SiO4
	  CoCl2           		0	0	# CoCl2
	  CoCl2:2H2O      		0	0	# CoCl2:2H2O
	  CoCl2:6H2O      		0	0	# CoCl2:6H2O
	  Coesite          		0	0	# SiO2
	  CoFe2O4          		0	0	# CoFe2O4
	  Coffinite       		0	0	# USiO4
	  CoO              		0	0	# CoO
	  Cordierite_anhyd		0	0	# Mg2Al4Si5O18
	  Cordierite_hydr 		0	0	# Mg2Al4Si5O18:H2O
	  Corundum         		0	0	# Al2O3
	  CoS              		0	0	# CoS
	  CoSO4           		0	0	# CoSO4
	  CoSO4:6H2O      		0	0	# CoSO4:6H2O
	  CoSO4:H2O       		0	0	# CoSO4:H2O
	  Covellite       		0	0	# CuS
	  Cr              		0	0	# Cr
	  CrCl3           		0	0	# CrCl3
	  Cristobalite(alpha)  		0	0	# SiO2
	  Cristobalite(beta)  		0	0	# SiO2
	  CrO2            		0	0	# CrO2
	  CrO3            		0	0	# CrO3
	  Cronstedtite-7A  		0	0	# Fe2Fe2SiO5(OH)4
	  CrS            		0	0	# CrS
	  Cu              		0	0	# Cu
	  CuCl2           		0	0	# CuCl2
	  CuCr2O4         		0	0	# CuCr2O4
	  Cuprite         		0	0	# Cu2O
	  Daphnite-7A      		0	0	# Fe5AlAlSi3O10(OH)8
	  Dawsonite       		0	0	# NaAlCO3(OH)2
	  Delafossite     		0	0	# CuFeO2
	  Diaspore         		0	0	# AlHO2
	  Dicalcium_silicate  		0	0	# Ca2SiO4
	  Diopside         		0	0	# CaMgSi2O6
	  Dioptase        		0	0	# CuSiO2(OH)2
	  Dolomite        		0	0	# CaMg(CO3)2
	  Dolomite-dis    		0	0	# CaMg(CO3)2
	  Dolomite-ord    		0	0	# CaMg(CO3)2
	  Enstatite        		0	0	# MgSiO3
	  Epidote          		0	0	# Ca2FeAl2Si3O12OH
	  Epidote-ord      		0	0	# FeCa2Al2(OH)(SiO4)3
	  Eskolaite       		0	0	# Cr2O3
	  Ettringite     		0	0	# Ca6Al2(SO4)3(OH)12:26H2O
	  Eu             		0	0	# Eu
	  Eu(OH)3          		0	0	# Eu(OH)3
	  Eu2(SO4)3:8H2O 		0	0	# Eu2(SO4)3:8H2O
	  Eu2O3(cubic)   		0	0	# Eu2O3
	  Eu2O3(monoclinic) 		0	0	# Eu2O3
	  Eu3O4          		0	0	# Eu3O4
	  EuCl2           		0	0	# EuCl2
	  EuCl3           		0	0	# EuCl3
	  EuCl3:6H2O      		0	0	# EuCl3:6H2O
	  Eucryptite       		0	0	# LiAlSiO4
	  EuOCl          		0	0	# EuOCl
	  EuS             		0	0	# EuS
	  EuSO4           		0	0	# EuSO4
	  Fayalite       		0	0	# Fe2SiO4
	  Fe               		0	0	# Fe
	  Fe(OH)2         		0	0	# Fe(OH)2
	  Fe(OH)3         		0	0	# Fe(OH)3
	  Fe2(SO4)3      		0	0	# Fe2(SO4)3
	  FeO              		0	0	# FeO
	  Ferrite-Ca      		0	0	# CaFe2O4
	  Ferrite-Cu      		0	0	# CuFe2O4
	  Ferrite-Dicalcium 		0	0	# Ca2Fe2O5
	  Ferrite-Mg       		0	0	# MgFe2O4
	  Ferrite-Zn       		0	0	# ZnFe2O4
	  Ferrosilite      		0	0	# FeSiO3
	  FeSO4          		0	0	# FeSO4
	  Forsterite       		0	0	# Mg2SiO4
	  Foshagite        		0	0	# Ca4Si3O9(OH)2:0.5H2O
	  Gd              		0	0	# Gd
	  Gehlenite       		0	0	# Ca2Al2SiO7
	  Gibbsite         		0	0	# Al(OH)3
	  Goethite         		0	0	# FeOOH
	  Greenalite        		0	0	# Fe3Si2O5(OH)4
	  Grossular       		0	0	# Ca3Al2(SiO4)3
	  Gypsum          		0	0	# CaSO4:2H2O
	  Gyrolite        		0	0	# Ca2Si3O7(OH)2:1.5H2O
	  Halite           		0	0	# NaCl
	  Hatrurite       		0	0	# Ca3SiO5
	  Hausmannite     		0	0	# Mn3O4
	  Heazlewoodite    		0	0	# Ni3S2
	  Hedenbergite     		0	0	# CaFe(SiO3)2
	  Hematite         		0	0	# Fe2O3
	  Hercynite        		0	0	# FeAl2O4
	  Hillebrandite    		0	0	# Ca2SiO3(OH)2:0.17H2O
	  Huntite         		0	0	# CaMg3(CO3)4
	  Hydromagnesite  		0	0	# Mg5(CO3)4(OH)2:4H2O
	  Hydrophilite    		0	0	# CaCl2
	  Hydroxyapatite   		0	0	# Ca5(OH)(PO4)3
	  Ice              		0	0	# H2O
	  Ilmenite       		0	0	# FeTiO3
	  Jadeite         		0	0	# NaAl(SiO3)2
	  Jarosite        		0	0	# KFe3(SO4)2(OH)6
	  K              		0	0	# K
	  K2O             		0	0	# K2O
	  KAl(SO4)2       		0	0	# KAl(SO4)2
	  Kalsilite        		0	0	# KAlSiO4
	  Kaolinite       		0	0	# Al2Si2O5(OH)4
	  KerogenC128    		0	0	# C128H68O7
	  KerogenC292    		0	0	# C292H288O12
	  KerogenC515    		0	0	# C515H596O72
	  Kyanite          		0	0	# Al2SiO5
	  Larnite          		0	0	# Ca2SiO4
	  Laumontite      		0	0	# CaAl2Si4O12:4H2O
	  Lawrencite			0	0	# FeCl2
	  Lawsonite			0	0	# CaAl2Si2O7(OH)2:H2O
	  Li				0	0	# Li
	  Lime				0	0	# CaO
	  Linnaeite			0	0	# Co3S4
	  Lizardite			0	0	# Mg3Si2O5(OH)4
	  Lopezite			0	0	# K2Cr2O7
	  Magnesiochromite		0	0	# MgCr2O4
	  Magnesite			0	0	# MgCO3
	  Magnetite			0	0	# Fe3O4
	  Malachite			0	0	# Cu2CO3(OH)2
	  Manganosite			0	0	# MnO
	  Margarite			0	0	# CaAl4Si2O10(OH)2
	  Maximum_Microcline		0	0	# KAlSi3O8
	  Mayenite			0	0	# Ca12Al14O33
	  Melanterite			0	0	# FeSO4:7H2O
	  Merwinite			0	0	# MgCa3(SiO4)2
	  Mesolite			0	0	# Na.676Ca.657Al1.99Si3.01O10:2.647H2O
	  Mg				0	0	# Mg
	  MgOHCl			0	0	# MgOHCl
	  MgSO4				0	0	# MgSO4
	  Millerite			0	0	# NiS
	  Minnesotaite			0	0	# Fe3Si4O10(OH)2
	  Mirabilite			0	0	# Na2SO4:10H2O
	  Mn				0	0	# Mn
	  Mn(OH)2(am)			0	0	# Mn(OH)2
	  MnCl2:2H2O			0	0	# MnCl2:2H2O
	  MnCl2:4H2O			0	0	# MnCl2:4H2O
	  MnCl2:H2O			0	0	# MnCl2:H2O
	  MnSO4				0	0	# MnSO4
	  Mo				0	0	# Mo
	  Molysite			0	0	# FeCl3
	  Monohydrocalcite		0	0	# CaCO3:H2O
	  Monticellite			0	0	# CaMgSiO4
	  Montmor-Ca			0	0	# Ca.175Mg.35Al1.65Si4O10(OH)2
	  Montmor-K			0	0	# K.35Mg.35Al1.65Si4O10(OH)2
	  Montmor-Mg			0	0	# Mg.525Al1.65Si4O10(OH)2
	  Montmor-Na			0	0	# Na.35Mg.35Al1.65Si4O10(OH)2
	  Mordenite			0	0	# Ca.2895Na.361Al.94Si5.06O12:3.468H2O
	  Morenosite			0	0	# NiSO4:7H2O
	  Muscovite			0	0	# KAl3Si3O10(OH)2
	  Na				0	0	# Na
	  Na2CO3			0	0	# Na2CO3
	  Na2CO3:7H2O			0	0	# Na2CO3:7H2O
	  Na2Cr2O7			0	0	# Na2Cr2O7
	  Na2CrO4			0	0	# Na2CrO4
	  Na2O				0	0	# Na2O
	  Na2SiO3			0	0	# Na2SiO3
	  Na2U2O7			0	0	# Na2U2O7
	  NaFeO2			0	0	# NaFeO2
	  Nahcolite			0	0	# NaHCO3
	  Nantokite			0	0	# CuCl
	  Natrolite			0	0	# Na2Al2Si3O10:2H2O
	  Natron			0	0	# Na2CO3:10H2O
	  Natrosilite			0	0	# Na2Si2O5
	  NaUO3				0	0	# NaUO3
	  Nepheline			0	0	# NaAlSiO4
	  Nesquehonite			0	0	# MgCO3:3H2O
	  NH4-feldspar			0	0	# NH4AlSi3O8
	  NH4-muscovite			0	0	# NH4Al3Si3O10(OH)2
	  NH4Cl				0	0	# NH4Cl
	  NH4HCO3			0	0	# NH4HCO3
	  Ni				0	0	# Ni
	  Ni(OH)2			0	0	# Ni(OH)2
	  Ni2SiO4			0	0	# Ni2SiO4
	  Nickelbischofite		0	0	# NiCl2:6H2O
	  NiCl2				0	0	# NiCl2
	  NiCl2:2H2O			0	0	# NiCl2:2H2O
	  Ningyoite			0	0	# CaUP2O8:2H2O
	  NiSO4				0	0	# NiSO4
	  NiSO4:6H2O(alpha)		0	0	# NiSO4:6H2O
	  Niter				0	0	# KNO3
	  Nontronite-Ca			0	0	# Ca.175Fe2Al.35Si3.65H2O12
	  Nontronite-K			0	0	# K.35Fe2Al.35Si3.65H2O12
	  Nontronite-Mg			0	0	# Mg.175Fe2Al.35Si3.65H2O12
	  Nontronite-Na			0	0	# Na.35Fe2Al.35Si3.65H2O12
	  Okenite			0	0	# CaSi2O4(OH)2:H2O
	  P				0	0	# P
	  Paragonite			0	0	# NaAl3Si3O10(OH)2
	  Pargasite			0	0	# NaCa2Al3Mg4Si6O22(OH)2
	  Periclase			0	0	# MgO
	  Petalite			0	0	# LiAlSi4O10
	  Polydymite			0	0	# Ni3S4
	  Portlandite			0	0	# Ca(OH)2
	  Prehnite			0	0	# Ca2Al2Si3O10(OH)2
	  Pseudowollastonite		0	0	# CaSiO3
	  Pyridine			0	0	# C5H5N
	  Pyrite			0	0	# FeS2
	  Pyrolusite			0	0	# MnO2
	  Pyrophyllite			0	0	# Al2Si4O10(OH)2
	  Pyrrhotite			0	0	# FeS
	  Rankinite			0	0	# Ca3Si2O7
	  Rhodochrosite			0	0	# MnCO3
	  Rhodonite			0	0	# MnSiO3
	  Ripidolite			0	0	# Mg3Fe2Al2Si3O10(OH)8
	  Rutherfordine			0	0	# UO2CO3
	  Rutile			0	0	# TiO2
	  S				0	0	# S
	  Saleeite			0	0	# Mg(UO2)2(PO4)2
	  Sanidine_high			0	0	# KAlSi3O8
	  Saponite-Fe-Ca		0	0	# Ca.175Fe3Al.35Si3.65O10(OH)2
	  Saponite-Fe-K			0	0	# K.35Fe3Al.35Si3.65O10(OH)2
	  Saponite-Fe-Mg		0	0	# Mg.175Fe3Al.35Si3.65O10(OH)2
	  Saponite-Fe-Na		0	0	# Na.35Fe3Al.35Si3.65O10(OH)2
	  Saponite-Mg-Ca		0	0	# Ca.175Mg3Al.35Si3.65O10(OH)2
	  Saponite-Mg-Fe		0	0	# Fe.175Mg3Al.35Si3.65O10(OH)2
	  Saponite-Mg-K			0	0	# K.35Mg3Al.35Si3.65O10(OH)2
	  Saponite-Mg-Mg		0	0	# Mg3.175Al.35Si3.65O10(OH)2
	  Saponite-Mg-Na		0	0	# Na.35Mg3Al.35Si3.65O10(OH)2
	  Sc				0	0	# Sc
	  Scacchite			0	0	# MnCl2
	  Schoepite			0	0	# UO3:2H2O
	  Scolecite			0	0	# CaAl2Si3O10:3H2O
	  Sepiolite			0	0	# Mg4Si6O15(OH)2:6H2O
	  Si				0	0	# Si
	  Siderite			0	0	# FeCO3
	  Sillimanite			0	0	# Al2SiO5
	  SiO2(am)			0	0	# SiO2
	  Sm				0	0	# Sm
	  Smectite-high-Fe-Mg		0	0	# Ca.025Na.1K.2Fe.5Fe.2Mg1.15Al1.25Si3.5H2O12
	  Smectite-low-Fe-Mg		0	0	# Ca.02Na.15K.2Fe.29Fe.16Mg.9Al1.25Si3.75H2O12
	  Smithsonite			0	0	# ZnCO3
	  Sphaerocobaltite		0	0	# CoCO3
	  Sphalerite			0	0	# ZnS
	  Spinel			0	0	# Al2MgO4
	  Spinel-Co			0	0	# Co3O4
	  Spodumene			0	0	# LiAlSi2O6
	  Stilbite			0	0	# Ca1.019Na.136K.006Al2.18Si6.82O18:7.33H2O
	  Strengite			0	0	# FePO4:2H2O
	  Sylvite			0	0	# KCl
	  Talc				0	0	# Mg3Si4O10(OH)2
	  Tarapacaite			0	0	# K2CrO4
	  Tenorite			0	0	# CuO
	  Tephroite			0	0	# Mn2SiO4
	  Th				0	0	# Th
	  Th(NO3)4:5H2O			0	0	# Th(NO3)4:5H2O
	  Th(SO4)2			0	0	# Th(SO4)2
	  Th2S3				0	0	# Th2S3
	  Th7S12			0	0	# Th7S12
	  ThCl4				0	0	# ThCl4
	  Thenardite			0	0	# Na2SO4
	  Thermonatrite			0	0	# Na2CO3:H2O
	  Thorianite			0	0	# ThO2
	  ThS2				0	0	# ThS2
	  Ti				0	0	# Ti
	  Ti2O3				0	0	# Ti2O3
	  Ti3O5				0	0	# Ti3O5
	  TiB2				0	0	# TiB2
	  TiC				0	0	# TiC
	  TiCl2				0	0	# TiCl2
	  TiCl3				0	0	# TiCl3
	  TiN				0	0	# TiN
	  Titanite			0	0	# CaTiSiO5
	  Tobermorite-11A		0	0	# Ca5Si6H11O22.5
	  Trevorite			0	0	# NiFe2O4
	  Tridymite			0	0	# SiO2
	  Troilite			0	0	# FeS
	  U				0	0	# U
	  U2O2Cl5			0	0	# U2O2Cl5
	  U3S5				0	0	# U3S5
	  UC				0	0	# UC
	  UCl3				0	0	# UCl3
	  UCl4				0	0	# UCl4
	  UCl6				0	0	# UCl6
	  UH3(beta)			0	0	# UH3
	  UN				0	0	# UN
	  UO2(NO3)2			0	0	# UO2(NO3)2
	  UO2(NO3)2:6H2O		0	0	# UO2(NO3)2:6H2O
	  UO2(OH)2(beta)		0	0	# UO2(OH)2
	  UO2SO4			0	0	# UO2SO4
	  UO2SO4:3H2O			0	0	# UO2SO4:3H2O
	  UO3(beta)			0	0	# UO3
	  Uraninite			0	0	# UO2
	  Vaesite			0	0	# NiS2
	  Wairakite			0	0	# CaAl2Si4O10(OH)4
	  Wollastonite			0	0	# CaSiO3
	  Wurtzite			0	0	# ZnS
	  Wustite			0	0	# Fe.947O
	  Xonotlite			0	0	# Ca6Si6O17(OH)2
	  Zincite			0	0	# ZnO
	  Zn				0	0	# Zn
	  Zn(NO3)2:6H2O			0	0	# Zn(NO3)2:6H2O
	  Zn(OH)2(beta)			0	0	# Zn(OH)2
	  Zn(OH)2(epsilon)		0	0	# Zn(OH)2
	  Zn2SiO4			0	0	# Zn2SiO4
	  ZnCl2				0	0	# ZnCl2
	  ZnCr2O4			0	0	# ZnCr2O4
	  ZnSO4				0	0	# ZnSO4
	  ZnSO4:6H2O			0	0	# ZnSO4:6H2O
	  Zoisite			0	0	# Ca2Al3(SiO4)3OH
	SELECTED_OUTPUT 1
		state 		false	
		solution 	false
		distance 	false
		time 		false
		step 		false
		temperature	true
		ionic_strength	true
		water		true
		totals 	Al B C Ca Cl Co Cr Cu Eu Fe Gd K Li Mg Mn Mo N Na Ni P S Sc Si Sm Th Ti U Zn B(3) C(-2) C(-3) C(-4) C(2) C(4) Cl(-1) Cl(1) Cl(3) Cl(5) Cl(7) Co(2) Co(3) Cr(2) Cr(3) Cr(6) Cu(1) Cu(2) Eu(2) Eu(3) Fe(2) Fe(3) Gd(3) H(0) Mn(2) Mn(3) Mn(6) Mn(7) N(-3) N(0) N(3) N(5) O(0) P(5) S(-2) S(2) S(3) S(4) S(5) S(6) S(7) S(8) Sm(2) Sm(3) U(3) U(4) U(5) U(6)
		molalities 	OH-	H+	H2O	AlO2-	HAlO2	AlOH+2	Al+3	Al(CH3COO)2+	BO2-	B(OH)3	C2H4	C2H6	CH4	CO	CO3-2	HCOO-	CH3OH	HCO3-	NaHCO3	CaCO3	CH3COO-	NaCH3COO	ScCH3COO+2	HCOOH	CO2	MgCO3	C3H8	CH3CH2OH	CH2O	LiCH3COO	KCH3COO	CN-	CH3COOH	NH4CH3COO	CaCH3COO+	SCN-	CO(NH2)2	HCN	MnCH3COO+	MgCH3COO+	FeCH3COO+	ZnCH3COO+	CuCH3COO	NiCH3COO+	CoCH3COO+	Sc(CH3COO)2+	Na(CH3COO)2-	Li(CH3COO)2-	K(CH3COO)2-	Ca(CH3COO)2	NH4(CH3COO)2-		CuCH3COO+	Mn(CH3COO)2	Mg(CH3COO)2	Fe(CH3COO)2	Zn(CH3COO)2	Cu(CH3COO)2-	Ni(CH3COO)2	Co(CH3COO)2	Sc(CH3COO)3	Cu(CH3COO)2	Mn(CH3COO)3-	Zn(CH3COO)3-	Ni(CH3COO)3-	Co(CH3COO)3-	Cu(CH3COO)3-	Ca+2	CaCl+	CaCl2	CaSO4	Cl-	NaCl	LiCl	KCl	MnCl+	HCl	MgCl+	FeCl+	ZnCl+	FeCl2	NiCl+	CoCl+	ZnCl2	ZnCl3-	ZnCl4-2	FeCl+2	ClO-	ClO2-	ClO3-	ClO4-	Co+2	Co+3	Cr+2	Cr+3	CrO4-2	HCrO4-	Cr2O7-2	Cu+	Cu+2	FeOH+	Fe+2	FeOH+2	Fe+3	H2	K+	KSO4-	KHSO4	Li+	Mg+2	MgSO4	Mn+2	MnSO4	Mn+3	MnO4-2	MnO4-	MoO4-2	NH3	NH4+	N2	NO2-	HNO2	NO3-	HNO3	Na+	NaOH	NaHSiO3	Ni+2	O2	S2O6-2	S3O6-2	S4O6-2	S5O6-2	PO4-3	HPO4-2	P2O7-4	H2PO4-	HP2O7-3	H3PO4	H2P2O7-2	H3P2O7-	H4P2O7	HS-	H2S	S2-2	S3-2	S4-2	S5-2	S2O3-2	S2O4-2	SO3-2	HSO3-	SO2	S2O5-2	SO4-2	HSO4-	ZnSO4	S2O8-2	HSO5-	Sc+3	HSiO3-	SiO2	Th+4	Ti(OH)4	U+3	U+4	UO2+	UO2OH+	UO2+2	ZnOH+	Zn+2
		equilibrium_phases   	[(6)(CB)(CB)S] [(aro)-O-(aro)] Afwillite Akermanite Al Al2(SO4)3 Alabandite Albite Albite_high Albite_low Alum-K Alunite Amesite-14A Analcime Andalusite Andradite Anhydrite Annite Anorthite Anthophyllite Antigorite Aragonite Arcanite Artinite Atacamite Azurite B B2O3 Bassanite Bassetite Beidellite-Ca Beidellite-Fe Beidellite-K Beidellite-Mg Beidellite-Na Berlinite Bieberite Bixbyite Boehmite Borax Boric_acid Bornite Brezinaite Brochantite Brucite Bunsenite C Ca Ca-Al_Pyroxene Ca3Al2O6 Ca4Al2Fe2O10 CaAl2O4 CaAl4O7 Calcite Cattierite CaUO4 Celadonite Chalcanthite Chalcedony Chalcocite Chalcocyanite Chalcopyrite Chamosite  Chloromagnesite Chromite Chrysotile Clinochlore-14A Clinochlore-7A Clinoptilolite-Ca Clinoptilolite-K Clinoptilolite-Na Clinozoisite Co Co2SiO4 CoCl2 CoCl2:2H2O CoCl2:6H2O Coesite CoFe2O4 Coffinite CoO Cordierite_anhyd Cordierite_hydr Corundum CoS CoSO4 CoSO4:6H2O CoSO4:H2O Covellite Cr CrCl3 Cristobalite(alpha) Cristobalite(beta) CrO2 CrO3 Cronstedtite-7A CrS Cu CuCl2 CuCr2O4 Cuprite Daphnite-14A Daphnite-7A Dawsonite Delafossite Diaspore Dicalcium_silicate Diopside Dioptase Dolomite Dolomite-dis Dolomite-ord Enstatite Epidote Epidote-ord Eskolaite Ettringite Eu Eu(OH)3 Eu2(SO4)3:8H2O Eu2O3(cubic) Eu2O3(monoclinic) Eu3O4 EuCl2 EuCl3 EuCl3:6H2O Eucryptite EuOCl EuS EuSO4 Fayalite Fe Fe(OH)2 Fe(OH)3 Fe2(SO4)3 FeO Ferrite-Ca Ferrite-Cu Ferrite-Dicalcium Ferrite-Mg Ferrite-Zn Ferrosilite FeSO4 Forsterite Foshagite Gd Gehlenite Gibbsite Goethite Greenalite Grossular Gypsum Gyrolite Halite Hatrurite Hausmannite Heazlewoodite Hedenbergite Hematite Hercynite Hillebrandite Huntite Hydromagnesite Hydrophilite Hydroxyapatite Ice Ilmenite Jadeite Jarosite K K-Feldspar K2O KAl(SO4)2 Kalsilite Kaolinite KerogenC128 KerogenC292 KerogenC515 Kyanite Larnite Laumontite Lawrencite Lawsonite Li Lime Linnaeite Lizardite Lopezite Magnesiochromite Magnesite Magnetite Malachite Manganosite Margarite Maximum_Microcline Mayenite Melanterite Merwinite Mesolite Mg MgOHCl MgSO4 Millerite Minnesotaite Mirabilite Mn Mn(OH)2(am) MnCl2:2H2O MnCl2:4H2O MnCl2:H2O MnSO4 Mo Molysite Monohydrocalcite Monticellite Montmor-Ca Montmor-K Montmor-Mg Montmor-Na Mordenite Morenosite Muscovite Na Na2CO3 Na2CO3:7H2O Na2Cr2O7 Na2CrO4 Na2O Na2SiO3 Na2U2O7 NaFeO2 Nahcolite Nantokite Natrolite Natron Natrosilite NaUO3 Nepheline Nesquehonite NH4-feldspar NH4-muscovite NH4Cl NH4HCO3 Ni Ni(OH)2 Ni2SiO4 Nickelbischofite NiCl2 NiCl2:2H2O Ningyoite NiSO4 NiSO4:6H2O(alpha) Niter Nontronite-Ca Nontronite-K Nontronite-Mg Nontronite-Na Okenite P Paragonite Pargasite Periclase Petalite Phlogopite Polydymite Portlandite Prehnite Pseudowollastonite Pyridine Pyrite Pyrolusite Pyrophyllite Pyrrhotite Quartz Rankinite Rhodochrosite Rhodonite Ripidolite Rutherfordine Rutile S Saleeite Sanidine_high Saponite-Fe-Ca Saponite-Fe-K Saponite-Fe-Mg Saponite-Fe-Na Saponite-Mg-Ca Saponite-Mg-Fe Saponite-Mg-K Saponite-Mg-Mg Saponite-Mg-Na Sc Scacchite Schoepite Scolecite Sepiolite Si Siderite Sillimanite SiO2(am) Sm Smectite-high-Fe-Mg Smectite-low-Fe-Mg Smithsonite Sphaerocobaltite Sphalerite Spinel Spinel-Co Spodumene Stilbite Strengite Sylvite Talc Tarapacaite Tenorite Tephroite Th Th(NO3)4:5H2O Th(SO4)2 Th2S3 Th7S12 ThCl4 Thenardite Thermonatrite Thorianite ThS2 Ti Ti2O3 Ti3O5 TiB2 TiC TiCl2 TiCl3 TiN Titanite Tobermorite-11A Tremolite Trevorite Tridymite Troilite U U2O2Cl5 U3S5 UC UCl3 UCl4 UCl6 UH3(beta) UN UO2(NO3)2 UO2(NO3)2:6H2O UO2(OH)2(beta) UO2SO4 UO2SO4:3H2O UO3(beta) Uraninite Vaesite Wairakite Wollastonite Wurtzite Wustite Xonotlite Zincite Zn Zn(NO3)2:6H2O Zn(OH)2(beta) Zn(OH)2(epsilon) Zn2SiO4 ZnCl2 ZnCr2O4 ZnSO4 ZnSO4:6H2O Zoisite C2H4(g) C2H6(g)	C3H8(g) CH4(g) CO(g) CO2(g) H2(g) H2O(g) H2S(g) N2(g) NH3(g) NO(g) NO2(g) O2(g) SO2(g)
	END
-----
TITLE
-----

 ExoCcycleGeo generated speciation input using core10.dat

-------------------------------------------
Beginning of initial solution calculations.
-------------------------------------------

Initial solution 1.	Planetary ocean surface waters (PHREEQC v3 manual p. 282)

-----------------------------Solution composition------------------------------

	Elements           Molality       Moles

	C                 2.407e-03   1.902e-02
	Ca                1.066e-02   8.423e-02
	Cl                5.657e-01   4.469e+00
	Fe                3.711e-08   2.932e-07
	K                 1.058e-02   8.357e-02
	Mg                5.508e-02   4.351e-01
	N(-3)             1.724e-06   1.362e-05
	N(5)              4.847e-06   3.830e-05
	Na                4.854e-01   3.835e+00
	O(0)              5.283e-04   4.173e-03  Equilibrium with O2(g)
	S(6)              2.926e-02   2.312e-01
	Si                7.384e-05   5.833e-04

----------------------------Description of solution----------------------------

                                       pH  =   9.085      Charge balance
                                       pe  =  12.382    
                          Density (g/cm³)  =   1.02583
                               Volume (L)  =   7.98111
                        Activity of water  =   0.981
                           Ionic strength  =   6.523e-01
                       Mass of water (kg)  =   7.900e+00
                 Total alkalinity (eq/kg)  =   3.216e-03
                       Total CO2 (mol/kg)  =   2.407e-03
                         Temperature (°C)  =  14.85
                  Electrical balance (eq)  =  -1.155e-13
 Percent error, 100*(Cat-|An|)/(Cat+|An|)  =  -0.00
                               Iterations  =   7
                                  Total H  = 8.773137e+02
                                  Total O  = 4.396378e+02

---------------------------------Redox couples---------------------------------

	Redox couple             pe  Eh (volts)

	N(-3)/N(5)           4.0955      0.2340
	O(-2)/O(0)          12.2826      0.7019

----------------------------Distribution of species----------------------------

                                               Log       Log       Log    mole V
   Species          Molality    Activity  Molality  Activity     Gamma   cm³/mol

   OH-             7.956e-06   5.188e-06    -5.099    -5.285    -0.186     -3.26
   H+              1.022e-09   8.218e-10    -8.991    -9.085    -0.095      0.00
   H2O             5.553e+01   9.809e-01     1.744    -0.008     0.000     18.03
C(-2)         0.000e+00
   C2H4            0.000e+00   0.000e+00  -253.534  -253.534     0.000     43.99
C(-3)         0.000e+00
   C2H6            0.000e+00   0.000e+00  -275.719  -275.719     0.000     50.07
C(-4)         0.000e+00
   CH4             0.000e+00   0.000e+00  -155.364  -155.364     0.000     36.29
C(2)          0.000e+00
   CO              0.000e+00   0.000e+00   -53.981   -53.981     0.000     32.65
C(4)          2.407e-03
   HCO3-           1.208e-03   8.128e-04    -2.918    -3.090    -0.172     24.45
   NaHCO3          4.439e-04   4.439e-04    -3.353    -3.353     0.000      1.80
   MgCO3           4.203e-04   4.203e-04    -3.376    -3.376     0.000    -18.15
   CO3-2           1.853e-04   3.545e-05    -3.732    -4.450    -0.718     -2.28
   CaCO3           1.478e-04   1.478e-04    -3.830    -3.830     0.000    -15.68
   CO2             1.573e-06   1.837e-06    -5.803    -5.736     0.067     32.30
   CO(NH2)2        3.724e-19   3.724e-19   -18.429   -18.429     0.000     44.11
   HCOO-           0.000e+00   0.000e+00   -45.488   -45.673    -0.186     26.57
   HCOOH           0.000e+00   0.000e+00   -50.933   -50.933     0.000     33.71
   HCN             0.000e+00   0.000e+00   -65.580   -65.580     0.000     44.74
   CN-             0.000e+00   0.000e+00   -65.825   -66.027    -0.201     23.91
   CH2O            0.000e+00   0.000e+00   -98.457   -98.457     0.000     26.04
   CH3OH           0.000e+00   0.000e+00  -128.370  -128.370     0.000     38.14
   CH3COO-         0.000e+00   0.000e+00  -159.994  -160.155    -0.160     40.87
   MgCH3COO+       0.000e+00   0.000e+00  -160.507  -160.679    -0.172     25.39
   NaCH3COO        0.000e+00   0.000e+00  -160.734  -160.734     0.000     47.00
   CaCH3COO+       0.000e+00   0.000e+00  -161.669  -161.841    -0.172     29.18
   KCH3COO         0.000e+00   0.000e+00  -162.616  -162.616     0.000    113.36
   CH3COOH         0.000e+00   0.000e+00  -164.471  -164.471     0.000     51.09
   NH4CH3COO       0.000e+00   0.000e+00  -165.998  -165.998     0.000     68.04
   FeCH3COO+       0.000e+00   0.000e+00  -172.494  -172.666    -0.172     23.83
   CH3CH2OH        0.000e+00   0.000e+00  -245.007  -245.007     0.000     55.05
   Mg(CH3COO)2     0.000e+00   0.000e+00  -319.941  -319.941     0.000     76.03
   Ca(CH3COO)2     0.000e+00   0.000e+00  -320.711  -320.711     0.000     80.28
   Na(CH3COO)2-    0.000e+00   0.000e+00  -320.997  -321.169    -0.172    101.68
   K(CH3COO)2-     0.000e+00   0.000e+00  -323.050  -323.222    -0.172    114.05
   NH4(CH3COO)2-   0.000e+00   0.000e+00  -326.040  -326.212    -0.172    125.10
   Fe(CH3COO)2     0.000e+00   0.000e+00  -331.490  -331.490     0.000     74.41
   C3H8            0.000e+00   0.000e+00  -392.719  -392.719     0.000     64.06
Ca            1.066e-02
   Ca+2            9.195e-03   2.288e-03    -2.036    -2.641    -0.604    -17.03
   CaSO4           1.006e-03   1.006e-03    -2.997    -2.997     0.000      7.06
   CaCl+           2.397e-04   1.613e-04    -3.620    -3.792    -0.172      6.05
   CaCO3           1.478e-04   1.478e-04    -3.830    -3.830     0.000    -15.68
   CaCl2           7.228e-05   7.228e-05    -4.141    -4.141     0.000     31.73
   CaCH3COO+       0.000e+00   0.000e+00  -161.669  -161.841    -0.172     29.18
   Ca(CH3COO)2     0.000e+00   0.000e+00  -320.711  -320.711     0.000     80.28
Cl(-1)        5.657e-01
   Cl-             5.426e-01   3.413e-01    -0.266    -0.467    -0.201     18.34
   NaCl            1.747e-02   1.747e-02    -1.758    -1.758     0.000     23.25
   MgCl+           5.212e-03   3.507e-03    -2.283    -2.455    -0.172      1.67
   CaCl+           2.397e-04   1.613e-04    -3.620    -3.792    -0.172      6.05
   CaCl2           7.228e-05   7.228e-05    -4.141    -4.141     0.000     31.73
   KCl             5.999e-05   5.999e-05    -4.222    -4.222     0.000     37.28
   HCl             6.179e-11   6.179e-11   -10.209   -10.209     0.000     -2.30
   FeCl+           4.955e-15   3.333e-15   -14.305   -14.477    -0.172      1.47
   FeCl+2          4.074e-16   7.796e-17   -15.390   -16.108    -0.718    -15.73
   FeCl2           5.799e-18   5.799e-18   -17.237   -17.237     0.000     26.61
Cl(1)         4.239e-18
   ClO-            4.239e-18   2.852e-18   -17.373   -17.545    -0.172      1.15
Cl(3)         5.901e-28
   ClO2-           5.901e-28   3.970e-28   -27.229   -27.401    -0.172     22.14
Cl(5)         1.845e-23
   ClO3-           1.845e-23   1.203e-23   -22.734   -22.920    -0.186     36.66
Cl(7)         2.340e-23
   ClO4-           2.340e-23   1.525e-23   -22.631   -22.817    -0.186     42.87
Fe(2)         6.463e-14
   Fe+2            5.609e-14   1.396e-14   -13.251   -13.855    -0.604    -21.49
   FeCl+           4.955e-15   3.333e-15   -14.305   -14.477    -0.172      1.47
   FeOH+           3.580e-15   2.409e-15   -14.446   -14.618    -0.172    -15.77
   FeCl2           5.799e-18   5.799e-18   -17.237   -17.237     0.000     26.61
   FeCH3COO+       0.000e+00   0.000e+00  -172.494  -172.666    -0.172     23.83
   Fe(CH3COO)2     0.000e+00   0.000e+00  -331.490  -331.490     0.000     74.41
Fe(3)         3.711e-08
   FeOH+2          3.711e-08   7.102e-09    -7.430    -8.149    -0.718    -21.89
   Fe+3            2.644e-14   2.309e-15   -13.578   -14.637    -1.059    -30.24
   FeCl+2          4.074e-16   7.796e-17   -15.390   -16.108    -0.718    -15.73
H(0)          0.000e+00
   H2              0.000e+00   0.000e+00   -46.313   -46.246     0.067     24.42
K             1.058e-02
   K+              1.027e-02   6.462e-03    -1.988    -2.190    -0.201      9.28
   KSO4-           2.455e-04   1.651e-04    -3.610    -3.782    -0.172     34.43
   KCl             5.999e-05   5.999e-05    -4.222    -4.222     0.000     37.28
   KHSO4           8.198e-14   8.198e-14   -13.086   -13.086     0.000     52.46
   KCH3COO         0.000e+00   0.000e+00  -162.616  -162.616     0.000    113.36
   K(CH3COO)2-     0.000e+00   0.000e+00  -323.050  -323.222    -0.172    114.05
Mg            5.508e-02
   Mg+2            4.071e-02   1.296e-02    -1.390    -1.888    -0.497    -20.15
   MgSO4           8.743e-03   8.743e-03    -2.058    -2.058     0.000      5.39
   MgCl+           5.212e-03   3.507e-03    -2.283    -2.455    -0.172      1.67
   MgCO3           4.203e-04   4.203e-04    -3.376    -3.376     0.000    -18.15
   MgCH3COO+       0.000e+00   0.000e+00  -160.507  -160.679    -0.172     25.39
   Mg(CH3COO)2     0.000e+00   0.000e+00  -319.941  -319.941     0.000     76.03
N(-3)         1.724e-06
   NH4+            1.433e-06   8.649e-07    -5.844    -6.063    -0.219     18.59
   NH3             2.901e-07   2.901e-07    -6.537    -6.537     0.000     24.24
   CO(NH2)2        3.724e-19   3.724e-19   -18.429   -18.429     0.000     44.11
   HCN             0.000e+00   0.000e+00   -65.580   -65.580     0.000     44.74
   CN-             0.000e+00   0.000e+00   -65.825   -66.027    -0.201     23.91
   NH4CH3COO       0.000e+00   0.000e+00  -165.998  -165.998     0.000     68.04
   NH4(CH3COO)2-   0.000e+00   0.000e+00  -326.040  -326.212    -0.172    125.10
N(5)          4.847e-06
   NO3-            4.847e-06   3.049e-06    -5.314    -5.516    -0.201     28.14
   HNO3            1.027e-16   1.027e-16   -15.988   -15.988     0.000     39.13
Na            4.854e-01
   Na+             4.675e-01   3.145e-01    -0.330    -0.502    -0.172     -1.05
   NaCl            1.747e-02   1.747e-02    -1.758    -1.758     0.000     23.25
   NaHCO3          4.439e-04   4.439e-04    -3.353    -3.353     0.000      1.80
   NaHSiO3         4.448e-05   4.448e-05    -4.352    -4.352     0.000     12.18
   NaOH            2.886e-07   2.886e-07    -6.540    -6.540     0.000      3.13
   NaCH3COO        0.000e+00   0.000e+00  -160.734  -160.734     0.000     47.00
   Na(CH3COO)2-    0.000e+00   0.000e+00  -320.997  -321.169    -0.172    101.68
O(0)          5.283e-04
   O2              2.641e-04   3.083e-04    -3.578    -3.511     0.067     29.49
   HCOO-           0.000e+00   0.000e+00   -45.488   -45.673    -0.186     26.57
   HCOOH           0.000e+00   0.000e+00   -50.933   -50.933     0.000     33.71
   HCN             0.000e+00   0.000e+00   -65.580   -65.580     0.000     44.74
   CN-             0.000e+00   0.000e+00   -65.825   -66.027    -0.201     23.91
   CH2O            0.000e+00   0.000e+00   -98.457   -98.457     0.000     26.04
   CH3OH           0.000e+00   0.000e+00  -128.370  -128.370     0.000     38.14
   CH3COO-         0.000e+00   0.000e+00  -159.994  -160.155    -0.160     40.87
   MgCH3COO+       0.000e+00   0.000e+00  -160.507  -160.679    -0.172     25.39
   NaCH3COO        0.000e+00   0.000e+00  -160.734  -160.734     0.000     47.00
   CaCH3COO+       0.000e+00   0.000e+00  -161.669  -161.841    -0.172     29.18
   KCH3COO         0.000e+00   0.000e+00  -162.616  -162.616     0.000    113.36
   CH3COOH         0.000e+00   0.000e+00  -164.471  -164.471     0.000     51.09
   NH4CH3COO       0.000e+00   0.000e+00  -165.998  -165.998     0.000     68.04
   FeCH3COO+       0.000e+00   0.000e+00  -172.494  -172.666    -0.172     23.83
   CH3CH2OH        0.000e+00   0.000e+00  -245.007  -245.007     0.000     55.05
   Mg(CH3COO)2     0.000e+00   0.000e+00  -319.941  -319.941     0.000     76.03
   Ca(CH3COO)2     0.000e+00   0.000e+00  -320.711  -320.711     0.000     80.28
   Na(CH3COO)2-    0.000e+00   0.000e+00  -320.997  -321.169    -0.172    101.68
   K(CH3COO)2-     0.000e+00   0.000e+00  -323.050  -323.222    -0.172    114.05
   NH4(CH3COO)2-   0.000e+00   0.000e+00  -326.040  -326.212    -0.172    125.10
   Fe(CH3COO)2     0.000e+00   0.000e+00  -331.490  -331.490     0.000     74.41
   C3H8            0.000e+00   0.000e+00  -392.719  -392.719     0.000     64.06
S(6)          2.926e-02
   SO4-2           1.927e-02   3.303e-03    -1.715    -2.481    -0.766     15.52
   MgSO4           8.743e-03   8.743e-03    -2.058    -2.058     0.000      5.39
   CaSO4           1.006e-03   1.006e-03    -2.997    -2.997     0.000      7.06
   KSO4-           2.455e-04   1.651e-04    -3.610    -3.782    -0.172     34.43
   HSO4-           3.064e-10   2.061e-10    -9.514    -9.686    -0.172     40.07
   KHSO4           8.198e-14   8.198e-14   -13.086   -13.086     0.000     52.46
Si            7.384e-05
   NaHSiO3         4.448e-05   4.448e-05    -4.352    -4.352     0.000     12.18
   SiO2            2.570e-05   2.570e-05    -4.590    -4.590     0.000     17.09
   HSiO3-          3.661e-06   2.463e-06    -5.436    -5.609    -0.172      5.38

------------------------------Saturation indices-------------------------------

  Phase               SI** log IAP   log K(288 K,   1 atm)

  [(aro)-O-(aro)]  19.50     -1.76  -21.26  O
  Afwillite       -24.54     37.36   61.90  Ca3Si2O4(OH)6
  Akermanite       -8.86     38.14   47.00  Ca2MgSi2O7
  Andradite        22.99     58.01   35.02  Ca3Fe2(SiO4)3
  Anhydrite        -0.89     -5.12   -4.24  CaSO4
  Anthophyllite     7.80     77.19   69.40  Mg7Si8O22(OH)2
  Antigorite      128.64    624.85  496.21  Mg48Si34O85(OH)62
  Aragonite         1.22      3.35    2.13  CaCO3
  Arcanite         -4.87     -6.86   -1.99  K2SO4
  Artinite         -0.09     20.35   20.44  Mg2CO3(OH)2:3H2O
  Bassanite        -1.54     -5.13   -3.59  CaSO4:0.5H2O
  Brucite          -0.71     16.27   16.97  Mg(OH)2
  C               -75.22     -8.66   66.56  C
  C2H4(g)        -251.33   -253.53   -2.20  C2H4
  C2H6(g)        -272.92   -275.72   -2.80  C2H6
  C3H8(g)        -389.91   -392.72   -2.80  C3H8
  Ca             -127.63     17.28  144.91  Ca
  Calcite           1.37      3.35    1.99  CaCO3
  CH4(g)         -152.61   -155.36   -2.75  CH4
  Chalcedony       -0.63     -4.59   -3.96  SiO2
  Chloromagnesite -25.62     -2.82   22.80  MgCl2
  Chrysotile        7.26     39.63   32.37  Mg3Si2O5(OH)4
  CO(g)           -51.06    -53.98   -2.92  CO
  CO2(g)           -4.40    -12.17   -7.76  CO2
  Coesite          -1.18     -4.59   -3.41  SiO2
  Cristobalite(alpha)  -0.92     -4.59   -3.67  SiO2
  Cristobalite(beta)  -1.39     -4.59   -3.20  SiO2
  Cronstedtite-7A  11.53     29.22   17.69  Fe2Fe2SiO5(OH)4
  Dicalcium_silicate -12.01     26.45   38.46  Ca2SiO4
  Diopside          0.92     22.62   21.69  CaMgSi2O6
  Dolomite          4.61      7.46    2.85  CaMg(CO3)2
  Dolomite-dis      3.00      7.46    4.46  CaMg(CO3)2
  Dolomite-ord      4.62      7.46    2.84  CaMg(CO3)2
  Enstatite        -0.11     11.68   11.79  MgSiO3
  Fayalite        -15.97      4.02   19.99  Fe2SiO4
  Fe              -55.25      6.06   61.31  Fe
  Fe(OH)2         -10.19      4.30   14.49  Fe(OH)2
  Fe(OH)3           6.43     12.59    6.16  Fe(OH)3
  Fe2(SO4)3       -41.31    -36.72    4.59  Fe2(SO4)3
  FeO              -9.87      4.31   14.18  FeO
  Ferrite-Ca       17.60     40.73   23.13  CaFe2O4
  Ferrite-Dicalcium  -3.48     56.26   59.74  Ca2Fe2O5
  Ferrite-Mg       18.73     41.49   22.75  MgFe2O4
  Ferrosilite      -8.04     -0.28    7.75  FeSiO3
  FeSO4           -19.40    -16.34    3.06  FeSO4
  Forsterite       -1.11     27.96   29.07  Mg2SiO4
  Foshagite       -19.70     48.30   68.00  Ca4Si3O9(OH)2:0.5H2O
  Goethite         11.69     12.60    0.91  FeOOH
  Greenalite      -19.87      3.72   23.59  Fe3Si2O5(OH)4
  Gypsum           -0.62     -5.14   -4.52  CaSO4:2H2O
  Gyrolite         -6.04     17.25   23.29  Ca2Si3O7(OH)2:1.5H2O
  H2(g)           -43.17    -46.25   -3.07  H2
  H2O(g)           -1.87     -0.01    1.86  H2O
  Halite           -2.51     -0.97    1.54  NaCl
  Hatrurite       -34.06     41.97   76.03  Ca3SiO5
  Hedenbergite     -9.63     10.65   20.28  CaFe(SiO3)2
  Hematite         24.34     25.21    0.88  Fe2O3
  Hillebrandite   -11.58     26.44   38.02  Ca2SiO3(OH)2:0.17H2O
  Huntite           4.39     15.68   11.28  CaMg3(CO3)4
  Hydromagnesite    0.05     32.66   32.61  Mg5(CO3)4(OH)2:4H2O
  Hydrophilite    -15.82     -3.57   12.25  CaCl2
  Ice              -0.11     -0.01    0.10  H2O
  Jarosite         11.65      3.40   -8.25  KFe3(SO4)2(OH)6
  K               -65.63      7.77   73.40  K
  K2O             -72.89     13.78   86.67  K2O
  KerogenC128    -11282.67   -237.6811044.99  C128H68O7
  KerogenC292    -28047.27   -419.1727628.10  C292H288O12
  KerogenC515    -50241.15   -751.6149489.54  C515H596O72
  Larnite         -13.36     26.45   39.82  Ca2SiO4
  Lawrencite      -24.37    -14.79    9.58  FeCl2
  Lime            -18.25     15.52   33.77  CaO
  Lizardite         7.90     39.63   31.73  Mg3Si2O5(OH)4
  Magnesite         1.56      4.11    2.55  MgCO3
  Magnetite        17.76     29.52   11.76  Fe3O4
  Melanterite     -13.93    -16.40   -2.46  FeSO4:7H2O
  Merwinite       -17.40     53.66   71.06  MgCa3(SiO4)2
  Mg             -109.09     18.03  127.12  Mg
  MgOHCl           -9.91      6.72   16.63  MgOHCl
  MgSO4            -9.76     -4.37    5.39  MgSO4
  Minnesotaite    -19.90     -5.45   14.45  Fe3Si4O10(OH)2
  Mirabilite       -1.94     -3.57   -1.63  Na2SO4:10H2O
  Molysite        -30.44    -16.04   14.41  FeCl3
  Monohydrocalcite   0.54      3.35    2.81  CaCO3:H2O
  Monticellite     -3.53     27.21   30.74  CaMgSiO4
  Na              -60.26      9.46   69.72  Na
  Na2CO3           -6.42      4.99   11.41  Na2CO3
  Na2CO3:7H2O      -4.85      4.93    9.79  Na2CO3:7H2O
  Na2O            -52.43     17.16   69.59  Na2O
  Na2SiO3         -10.14     12.57   22.71  Na2SiO3
  NaFeO2            0.29     21.19   20.89  NaFeO2
  Nahcolite        -3.36     -3.59   -0.24  NaHCO3
  Natron           -4.39      4.91    9.29  Na2CO3:10H2O
  Natrosilite     -10.39      7.98   18.37  Na2Si2O5
  Nesquehonite     -1.53      4.08    5.61  MgCO3:3H2O
  NH3(g)           -8.55     -6.54    2.02  NH3
  NH4Cl            -7.63     -6.53    1.10  NH4Cl
  NH4HCO3          -9.02     -9.15   -0.13  NH4HCO3
  Niter            -7.26     -7.71   -0.44  KNO3
  NO2(g)          -22.56    -13.72    8.84  NO2
  O2(g)            -0.70     -3.51   -2.81  O2	 Pressure   0.2 atm, phi 1.000
  Okenite          -4.10      6.32   10.42  CaSi2O4(OH)2:H2O
  Periclase        -5.98     16.27   22.25  MgO
  Portlandite      -7.83     15.51   23.34  Ca(OH)2
  Pseudowollastonite  -3.51     10.93   14.44  CaSiO3
  Quartz           -0.35     -4.59   -4.24  SiO2
  Rankinite       -16.29     37.38   53.67  Ca3Si2O7
  Sepiolite         6.35     37.50   31.14  Mg4Si6O15(OH)2:6H2O
  Si             -155.27     -1.08  154.19  Si
  Siderite         -7.84     -7.86   -0.02  FeCO3
  SiO2(am)         -1.71     -4.59   -2.88  SiO2
  Sylvite          -3.38     -2.66    0.72  KCl
  Talc              8.58     30.45   21.87  Mg3Si4O10(OH)2
  Thenardite       -3.15     -3.49   -0.34  Na2SO4
  Thermonatrite    -6.13      4.98   11.11  Na2CO3:H2O
  Tobermorite-11A -17.09     50.02   67.11  Ca5Si6H11O22.5
  Tremolite        12.32     75.69   63.37  Ca2Mg5Si8O22(OH)2
  Tridymite        -0.54     -4.59   -4.05  SiO2
  Wollastonite     -3.26     10.93   14.19  CaSiO3
  Wustite          -8.08      4.96   13.04  Fe.947O
  Xonotlite       -29.14     65.58   94.72  Ca6Si6O17(OH)2

**For a gas, SI = log10(fugacity). Fugacity = pressure * phi / 1 atm.
  For ideal gases, phi = 1.

-----------------------------------------
Beginning of batch-reaction calculations.
-----------------------------------------

Reaction step 1.

WARNING: Element Al is contained in Al (which has 0.0 mass),	
but is not in solution or other phases.
WARNING: Element Al is contained in Al2(SO4)3 (which has 0.0 mass),	
but is not in solution or other phases.
WARNING: Element Mn is contained in Alabandite (which has 0.0 mass),	
but is not in solution or other phases.
WARNING: Element Al is contained in Albite (which has 0.0 mass),	
but is not in solution or other phases.
WARNING: Element Al is contained in Albite_high (which has 0.0 mass),	
but is not in solution or other phases.
WARNING: Element Al is contained in Albite_low (which has 0.0 mass),	
but is not in solution or other phases.
WARNING: Element Al is contained in Alum-K (which has 0.0 mass),	
but is not in solution or other phases.
WARNING: Element Al is contained in Alunite (which has 0.0 mass),	
but is not in solution or other phases.
WARNING: Element Al is contained in Amesite-14A (which has 0.0 mass),	
but is not in solution or other phases.
WARNING: Element Al is contained in Analcime (which has 0.0 mass),	
but is not in solution or other phases.
WARNING: Element Al is contained in Andalusite (which has 0.0 mass),	
but is not in solution or other phases.
WARNING: Element Al is contained in Annite (which has 0.0 mass),	
but is not in solution or other phases.
WARNING: Element Al is contained in Anorthite (which has 0.0 mass),	
but is not in solution or other phases.
WARNING: Element Cu is contained in Atacamite (which has 0.0 mass),	
but is not in solution or other phases.
WARNING: Element Cu is contained in Azurite (which has 0.0 mass),	
but is not in solution or other phases.
WARNING: Element B is contained in B (which has 0.0 mass),	
but is not in solution or other phases.
WARNING: Element B is contained in B2O3 (which has 0.0 mass),	
but is not in solution or other phases.
WARNING: Element P is contained in Bassetite (which has 0.0 mass),	
but is not in solution or other phases.
WARNING: Element U is contained in Bassetite (which has 0.0 mass),	
but is not in solution or other phases.
WARNING: Element Al is contained in Beidellite-Ca (which has 0.0 mass),	
but is not in solution or other phases.
WARNING: Element Al is contained in Beidellite-Fe (which has 0.0 mass),	
but is not in solution or other phases.
WARNING: Element Al is contained in Beidellite-K (which has 0.0 mass),	
but is not in solution or other phases.
WARNING: Element Al is contained in Beidellite-Mg (which has 0.0 mass),	
but is not in solution or other phases.
WARNING: Element Al is contained in Beidellite-Na (which has 0.0 mass),	
but is not in solution or other phases.
WARNING: Element Al is contained in Berlinite (which has 0.0 mass),	
but is not in solution or other phases.
WARNING: Element P is contained in Berlinite (which has 0.0 mass),	
but is not in solution or other phases.
WARNING: Element Co is contained in Bieberite (which has 0.0 mass),	
but is not in solution or other phases.
WARNING: Element Mn is contained in Bixbyite (which has 0.0 mass),	
but is not in solution or other phases.
WARNING: Element Al is contained in Boehmite (which has 0.0 mass),	
but is not in solution or other phases.
WARNING: Element B is contained in Borax (which has 0.0 mass),	
but is not in solution or other phases.
WARNING: Element B is contained in Boric_acid (which has 0.0 mass),	
but is not in solution or other phases.
WARNING: Element Cu is contained in Bornite (which has 0.0 mass),	
but is not in solution or other phases.
WARNING: Element Cr is contained in Brezinaite (which has 0.0 mass),	
but is not in solution or other phases.
WARNING: Element Cu is contained in Brochantite (which has 0.0 mass),	
but is not in solution or other phases.
WARNING: Element Ni is contained in Bunsenite (which has 0.0 mass),	
but is not in solution or other phases.
WARNING: Element Al is contained in Ca-Al_Pyroxene (which has 0.0 mass),	
but is not in solution or other phases.
WARNING: Element Al is contained in Ca3Al2O6 (which has 0.0 mass),	
but is not in solution or other phases.
WARNING: Element Al is contained in Ca4Al2Fe2O10 (which has 0.0 mass),	
but is not in solution or other phases.
WARNING: Element Al is contained in CaAl2O4 (which has 0.0 mass),	
but is not in solution or other phases.
WARNING: Element Al is contained in CaAl4O7 (which has 0.0 mass),	
but is not in solution or other phases.
WARNING: Element U is contained in CaUO4 (which has 0.0 mass),	
but is not in solution or other phases.
WARNING: Element Co is contained in Cattierite (which has 0.0 mass),	
but is not in solution or other phases.
WARNING: Element Al is contained in Celadonite (which has 0.0 mass),	
but is not in solution or other phases.
WARNING: Element Cu is contained in Chalcanthite (which has 0.0 mass),	
but is not in solution or other phases.
WARNING: Element Cu is contained in Chalcocite (which has 0.0 mass),	
but is not in solution or other phases.
WARNING: Element Cu is contained in Chalcocyanite (which has 0.0 mass),	
but is not in solution or other phases.
WARNING: Element Cu is contained in Chalcopyrite (which has 0.0 mass),	
but is not in solution or other phases.
WARNING: Element Al is contained in Chamosite (which has 0.0 mass),	
but is not in solution or other phases.
WARNING: Element Cr is contained in Chromite (which has 0.0 mass),	
but is not in solution or other phases.
WARNING: Element Al is contained in Clinochlore-14A (which has 0.0 mass),	
but is not in solution or other phases.
WARNING: Element Al is contained in Clinochlore-7A (which has 0.0 mass),	
but is not in solution or other phases.
WARNING: Element Al is contained in Clinoptilolite-Ca (which has 0.0 mass),	
but is not in solution or other phases.
WARNING: Element Al is contained in Clinoptilolite-K (which has 0.0 mass),	
but is not in solution or other phases.
WARNING: Element Al is contained in Clinoptilolite-Na (which has 0.0 mass),	
but is not in solution or other phases.
WARNING: Element Al is contained in Clinozoisite (which has 0.0 mass),	
but is not in solution or other phases.
WARNING: Element Co is contained in Co (which has 0.0 mass),	
but is not in solution or other phases.
WARNING: Element Co is contained in Co2SiO4 (which has 0.0 mass),	
but is not in solution or other phases.
WARNING: Element Co is contained in CoCl2 (which has 0.0 mass),	
but is not in solution or other phases.
WARNING: Element Co is contained in CoCl2:2H2O (which has 0.0 mass),	
but is not in solution or other phases.
WARNING: Element Co is contained in CoCl2:6H2O (which has 0.0 mass),	
but is not in solution or other phases.
WARNING: Element Co is contained in CoFe2O4 (which has 0.0 mass),	
but is not in solution or other phases.
WARNING: Element Co is contained in CoO (which has 0.0 mass),	
but is not in solution or other phases.
WARNING: Element Co is contained in CoS (which has 0.0 mass),	
but is not in solution or other phases.
WARNING: Element Co is contained in CoSO4 (which has 0.0 mass),	
but is not in solution or other phases.
WARNING: Element Co is contained in CoSO4:6H2O (which has 0.0 mass),	
but is not in solution or other phases.
WARNING: Element Co is contained in CoSO4:H2O (which has 0.0 mass),	
but is not in solution or other phases.
WARNING: Element U is contained in Coffinite (which has 0.0 mass),	
but is not in solution or other phases.
WARNING: Element Al is contained in Cordierite_anhyd (which has 0.0 mass),	
but is not in solution or other phases.
WARNING: Element Al is contained in Cordierite_hydr (which has 0.0 mass),	
but is not in solution or other phases.
WARNING: Element Al is contained in Corundum (which has 0.0 mass),	
but is not in solution or other phases.
WARNING: Element Cu is contained in Covellite (which has 0.0 mass),	
but is not in solution or other phases.
WARNING: Element Cr is contained in Cr (which has 0.0 mass),	
but is not in solution or other phases.
WARNING: Element Cr is contained in CrCl3 (which has 0.0 mass),	
but is not in solution or other phases.
WARNING: Element Cr is contained in CrO2 (which has 0.0 mass),	
but is not in solution or other phases.
WARNING: Element Cr is contained in CrO3 (which has 0.0 mass),	
but is not in solution or other phases.
WARNING: Element Cr is contained in CrS (which has 0.0 mass),	
but is not in solution or other phases.
WARNING: Element Cu is contained in Cu (which has 0.0 mass),	
but is not in solution or other phases.
WARNING: Element Cu is contained in CuCl2 (which has 0.0 mass),	
but is not in solution or other phases.
WARNING: Element Cr is contained in CuCr2O4 (which has 0.0 mass),	
but is not in solution or other phases.
WARNING: Element Cu is contained in CuCr2O4 (which has 0.0 mass),	
but is not in solution or other phases.
WARNING: Element Cu is contained in Cuprite (which has 0.0 mass),	
but is not in solution or other phases.
WARNING: Element Al is contained in Daphnite-14A (which has 0.0 mass),	
but is not in solution or other phases.
WARNING: Element Al is contained in Daphnite-7A (which has 0.0 mass),	
but is not in solution or other phases.
WARNING: Element Al is contained in Dawsonite (which has 0.0 mass),	
but is not in solution or other phases.
WARNING: Element Cu is contained in Delafossite (which has 0.0 mass),	
but is not in solution or other phases.
WARNING: Element Al is contained in Diaspore (which has 0.0 mass),	
but is not in solution or other phases.
WARNING: Element Cu is contained in Dioptase (which has 0.0 mass),	
but is not in solution or other phases.
WARNING: Element Al is contained in Epidote (which has 0.0 mass),	
but is not in solution or other phases.
WARNING: Element Al is contained in Epidote-ord (which has 0.0 mass),	
but is not in solution or other phases.
WARNING: Element Cr is contained in Eskolaite (which has 0.0 mass),	
but is not in solution or other phases.
WARNING: Element Al is contained in Ettringite (which has 0.0 mass),	
but is not in solution or other phases.
WARNING: Element Eu is contained in Eu (which has 0.0 mass),	
but is not in solution or other phases.
WARNING: Element Eu is contained in Eu(OH)3 (which has 0.0 mass),	
but is not in solution or other phases.
WARNING: Element Eu is contained in Eu2(SO4)3:8H2O (which has 0.0 mass),	
but is not in solution or other phases.
WARNING: Element Eu is contained in Eu2O3(cubic) (which has 0.0 mass),	
but is not in solution or other phases.
WARNING: Element Eu is contained in Eu2O3(monoclinic) (which has 0.0 mass),	
but is not in solution or other phases.
WARNING: Element Eu is contained in Eu3O4 (which has 0.0 mass),	
but is not in solution or other phases.
WARNING: Element Eu is contained in EuCl2 (which has 0.0 mass),	
but is not in solution or other phases.
WARNING: Element Eu is contained in EuCl3 (which has 0.0 mass),	
but is not in solution or other phases.
WARNING: Element Eu is contained in EuCl3:6H2O (which has 0.0 mass),	
but is not in solution or other phases.
Using solution 1.	Planetary ocean surface waters (PHREEQC v3 manual p. 282)
Using pure phase assemblage 1.	Atmosphere, no rock

-------------------------------Phase assemblage--------------------------------

                                                      Moles in assemblage
Phase               SI  log IAP  log K(T, P)   Initial       Final       Delta

Afwillite       -66.46    -4.56     61.90    0.000e+00           0   0.000e+00
Akermanite      -50.77    -3.77     47.00    0.000e+00           0   0.000e+00
Al                   Element not present.    0.000e+00           0   0.000e+00
Al2(SO4)3            Element not present.    0.000e+00           0   0.000e+00
Alabandite           Element not present.    0.000e+00           0   0.000e+00
Albite               Element not present.    0.000e+00           0   0.000e+00
Albite_high          Element not present.    0.000e+00           0   0.000e+00
Albite_low           Element not present.    0.000e+00           0   0.000e+00
Alum-K               Element not present.    0.000e+00           0   0.000e+00
Alunite              Element not present.    0.000e+00           0   0.000e+00
Amesite-14A          Element not present.    0.000e+00           0   0.000e+00
Analcime             Element not present.    0.000e+00           0   0.000e+00
Andalusite           Element not present.    0.000e+00           0   0.000e+00
Andradite       -49.03   -14.01     35.02    0.000e+00           0   0.000e+00
Anhydrite        -0.94    -5.17     -4.24    0.000e+00           0   0.000e+00
Annite               Element not present.    0.000e+00           0   0.000e+00
Anorthite            Element not present.    0.000e+00           0   0.000e+00
Anthophyllite   -88.83   -19.43     69.40    0.000e+00           0   0.000e+00
Antigorite     -541.19   -44.98    496.21    0.000e+00           0   0.000e+00
Aragonite       -11.98    -9.84      2.13    0.000e+00           0   0.000e+00
Arcanite         -4.93    -6.92     -1.99    0.000e+00           0   0.000e+00
Artinite        -27.49    -7.05     20.44    0.000e+00           0   0.000e+00
Atacamite            Element not present.    0.000e+00           0   0.000e+00
Azurite              Element not present.    0.000e+00           0   0.000e+00
B                    Element not present.    0.000e+00           0   0.000e+00
B2O3                 Element not present.    0.000e+00           0   0.000e+00
Bassanite        -1.59    -5.18     -3.59    0.000e+00           0   0.000e+00
Bassetite            Element not present.    0.000e+00           0   0.000e+00
Beidellite-Ca        Element not present.    0.000e+00           0   0.000e+00
Beidellite-Fe        Element not present.    0.000e+00           0   0.000e+00
Beidellite-K         Element not present.    0.000e+00           0   0.000e+00
Beidellite-Mg        Element not present.    0.000e+00           0   0.000e+00
Beidellite-Na        Element not present.    0.000e+00           0   0.000e+00
Berlinite            Element not present.    0.000e+00           0   0.000e+00
Bieberite            Element not present.    0.000e+00           0   0.000e+00
Bixbyite             Element not present.    0.000e+00           0   0.000e+00
Boehmite             Element not present.    0.000e+00           0   0.000e+00
Borax                Element not present.    0.000e+00           0   0.000e+00
Boric_acid           Element not present.    0.000e+00           0   0.000e+00
Bornite              Element not present.    0.000e+00           0   0.000e+00
Brezinaite           Element not present.    0.000e+00           0   0.000e+00
Brochantite          Element not present.    0.000e+00           0   0.000e+00
Brucite         -14.91     2.06     16.97    0.000e+00           0   0.000e+00
Bunsenite            Element not present.    0.000e+00           0   0.000e+00
C               -72.64    -6.08     66.56    0.000e+00           0   0.000e+00
C2H4(g)        -243.42  -245.62     -2.20    0.000e+00           0   0.000e+00
C2H6(g)        -264.02  -266.82     -2.80    0.000e+00           0   0.000e+00
C3H8(g)        -379.03  -381.84     -2.80    0.000e+00           0   0.000e+00
CH4(g)         -147.67  -150.42     -2.75    1.800e-06           0  -1.800e-06
CO(g)           -49.07   -51.99     -2.92    0.000e+00           0   0.000e+00
CO2(g)           -3.40   -11.16     -7.76    4.000e-04   1.929e-02   1.889e-02
Ca             -141.05     3.86    144.91    0.000e+00           0   0.000e+00
Ca-Al_Pyroxene       Element not present.    0.000e+00           0   0.000e+00
Ca3Al2O6             Element not present.    0.000e+00           0   0.000e+00
Ca4Al2Fe2O10         Element not present.    0.000e+00           0   0.000e+00
CaAl2O4              Element not present.    0.000e+00           0   0.000e+00
CaAl4O7              Element not present.    0.000e+00           0   0.000e+00
CaUO4                Element not present.    0.000e+00           0   0.000e+00
Calcite         -11.83    -9.84      1.99    0.000e+00           0   0.000e+00
Cattierite           Element not present.    0.000e+00           0   0.000e+00
Celadonite           Element not present.    0.000e+00           0   0.000e+00
Chalcanthite         Element not present.    0.000e+00           0   0.000e+00
Chalcedony       -0.28    -4.24     -3.96    0.000e+00           0   0.000e+00
Chalcocite           Element not present.    0.000e+00           0   0.000e+00
Chalcocyanite        Element not present.    0.000e+00           0   0.000e+00
Chalcopyrite         Element not present.    0.000e+00           0   0.000e+00
Chamosite            Element not present.    0.000e+00           0   0.000e+00
Chloromagnesite  -25.61    -2.81     22.80    0.000e+00           0   0.000e+00
Chromite             Element not present.    0.000e+00           0   0.000e+00
Chrysotile      -34.65    -2.28     32.37    0.000e+00           0   0.000e+00
Clinochlore-14A      Element not present.    0.000e+00           0   0.000e+00
Clinochlore-7A       Element not present.    0.000e+00           0   0.000e+00
Clinoptilolite-Ca    Element not present.    0.000e+00           0   0.000e+00
Clinoptilolite-K     Element not present.    0.000e+00           0   0.000e+00
Clinoptilolite-Na    Element not present.    0.000e+00           0   0.000e+00
Clinozoisite         Element not present.    0.000e+00           0   0.000e+00
Co                   Element not present.    0.000e+00           0   0.000e+00
Co2SiO4              Element not present.    0.000e+00           0   0.000e+00
CoCl2                Element not present.    0.000e+00           0   0.000e+00
CoCl2:2H2O           Element not present.    0.000e+00           0   0.000e+00
CoCl2:6H2O           Element not present.    0.000e+00           0   0.000e+00
CoFe2O4              Element not present.    0.000e+00           0   0.000e+00
CoO                  Element not present.    0.000e+00           0   0.000e+00
CoS                  Element not present.    0.000e+00           0   0.000e+00
CoSO4                Element not present.    0.000e+00           0   0.000e+00
CoSO4:6H2O           Element not present.    0.000e+00           0   0.000e+00
CoSO4:H2O            Element not present.    0.000e+00           0   0.000e+00
Coesite          -0.84    -4.24     -3.41    0.000e+00           0   0.000e+00
Coffinite            Element not present.    0.000e+00           0   0.000e+00
Cordierite_anhyd     Element not present.    0.000e+00           0   0.000e+00
Cordierite_hydr      Element not present.    0.000e+00           0   0.000e+00
Corundum             Element not present.    0.000e+00           0   0.000e+00
Covellite            Element not present.    0.000e+00           0   0.000e+00
Cr                   Element not present.    0.000e+00           0   0.000e+00
CrCl3                Element not present.    0.000e+00           0   0.000e+00
CrO2                 Element not present.    0.000e+00           0   0.000e+00
CrO3                 Element not present.    0.000e+00           0   0.000e+00
CrS                  Element not present.    0.000e+00           0   0.000e+00
Cristobalite(alpha)   -0.57    -4.24     -3.67    0.000e+00           0   0.000e+00
Cristobalite(beta)   -1.05    -4.24     -3.20    0.000e+00           0   0.000e+00
Cronstedtite-7A  -48.04   -30.35     17.69    0.000e+00           0   0.000e+00
Cu                   Element not present.    0.000e+00           0   0.000e+00
CuCl2                Element not present.    0.000e+00           0   0.000e+00
CuCr2O4              Element not present.    0.000e+00           0   0.000e+00
Cuprite              Element not present.    0.000e+00           0   0.000e+00
Daphnite-14A         Element not present.    0.000e+00           0   0.000e+00
Daphnite-7A          Element not present.    0.000e+00           0   0.000e+00
Dawsonite            Element not present.    0.000e+00           0   0.000e+00
Delafossite          Element not present.    0.000e+00           0   0.000e+00
Diaspore             Element not present.    0.000e+00           0   0.000e+00
Dicalcium_silicate  -40.07    -1.61     38.46    0.000e+00           0   0.000e+00
Diopside        -26.79    -5.09     21.69    0.000e+00           0   0.000e+00
Dioptase             Element not present.    0.000e+00           0   0.000e+00
Dolomite        -21.78   -18.93      2.85    0.000e+00           0   0.000e+00
Dolomite-dis    -23.40   -18.93      4.46    0.000e+00           0   0.000e+00
Dolomite-ord    -21.77   -18.93      2.84    0.000e+00           0   0.000e+00
Enstatite       -13.96    -2.17     11.79    0.000e+00           0   0.000e+00
Epidote              Element not present.    0.000e+00           0   0.000e+00
Epidote-ord          Element not present.    0.000e+00           0   0.000e+00
Eskolaite            Element not present.    0.000e+00           0   0.000e+00
Ettringite           Element not present.    0.000e+00           0   0.000e+00
Eu                   Element not present.    0.000e+00           0   0.000e+00
Eu(OH)3              Element not present.    0.000e+00           0   0.000e+00
Eu2(SO4)3:8H2O       Element not present.    0.000e+00           0   0.000e+00
Eu2O3(cubic)         Element not present.    0.000e+00           0   0.000e+00
Eu2O3(monoclinic)    Element not present.    0.000e+00           0   0.000e+00
Eu3O4                Element not present.    0.000e+00           0   0.000e+00
EuCl2                Element not present.    0.000e+00           0   0.000e+00
EuCl3                Element not present.    0.000e+00           0   0.000e+00
EuCl3:6H2O           Element not present.    0.000e+00           0   0.000e+00
EuOCl                Element not present.    0.000e+00           0   0.000e+00
EuS                  Element not present.    0.000e+00           0   0.000e+00
EuSO4                Element not present.    0.000e+00           0   0.000e+00
Eucryptite           Element not present.    0.000e+00           0   0.000e+00
Fayalite        -45.09   -25.10     19.99    0.000e+00           0   0.000e+00
Fe              -69.20    -7.88     61.31    0.000e+00           0   0.000e+00
Fe(OH)2         -24.92   -10.44     14.49    0.000e+00           0   0.000e+00
Fe(OH)3          -8.79    -2.63      6.16    0.000e+00           0   0.000e+00
Fe2(SO4)3       -29.30   -24.71      4.59    0.000e+00           0   0.000e+00
FeO             -24.61   -10.43     14.18    0.000e+00           0   0.000e+00
FeSO4           -19.98   -16.92      3.06    0.000e+00           0   0.000e+00
Ferrite-Ca      -27.05    -3.92     23.13    0.000e+00           0   0.000e+00
Ferrite-Cu           Element not present.    0.000e+00           0   0.000e+00
Ferrite-Dicalcium  -62.34    -2.60     59.74    0.000e+00           0   0.000e+00
Ferrite-Mg      -25.92    -3.16     22.75    0.000e+00           0   0.000e+00
Ferrite-Zn           Element not present.    0.000e+00           0   0.000e+00
Ferrosilite     -22.42   -14.67      7.75    0.000e+00           0   0.000e+00
Forsterite      -29.17    -0.10     29.07    0.000e+00           0   0.000e+00
Foshagite       -75.47    -7.47     68.00    0.000e+00           0   0.000e+00
Gd                   Element not present.    0.000e+00           0   0.000e+00
Gehlenite            Element not present.    0.000e+00           0   0.000e+00
Gibbsite             Element not present.    0.000e+00           0   0.000e+00
Goethite         -3.54    -2.62      0.91    0.000e+00           0   0.000e+00
Greenalite      -63.37   -39.78     23.59    0.000e+00           0   0.000e+00
Grossular            Element not present.    0.000e+00           0   0.000e+00
Gypsum           -0.67    -5.19     -4.52    0.000e+00           0   0.000e+00
Gyrolite        -33.40   -10.11     23.29    0.000e+00           0   0.000e+00
H2(g)           -42.19   -45.26     -3.07    0.000e+00           0   0.000e+00
H2O(g)           -1.87    -0.01      1.86    0.000e+00           0   0.000e+00
H2S(g)         -131.94  -139.96     -8.02    0.000e+00           0   0.000e+00
Halite           -2.51    -0.97      1.54    0.000e+00           0   0.000e+00
Hatrurite       -76.32    -0.29     76.03    0.000e+00           0   0.000e+00
Hausmannite          Element not present.    0.000e+00           0   0.000e+00
Heazlewoodite        Element not present.    0.000e+00           0   0.000e+00
Hedenbergite    -37.87   -17.59     20.28    0.000e+00           0   0.000e+00
Hematite         -6.11    -5.24      0.88    0.000e+00           0   0.000e+00
Hercynite            Element not present.    0.000e+00           0   0.000e+00
Hillebrandite   -39.64    -1.62     38.02    0.000e+00           0   0.000e+00
Huntite         -48.40   -37.11     11.28    0.000e+00           0   0.000e+00
Hydromagnesite  -66.94   -34.33     32.61    0.000e+00           0   0.000e+00
Hydrophilite    -15.82    -3.57     12.25    0.000e+00           0   0.000e+00
Hydroxyapatite       Element not present.    0.000e+00           0   0.000e+00
Ice              -0.11    -0.01      0.10    0.000e+00           0   0.000e+00
Ilmenite             Element not present.    0.000e+00           0   0.000e+00
Jadeite              Element not present.    0.000e+00           0   0.000e+00
Jarosite        -12.83   -21.08     -8.25    0.000e+00           0   0.000e+00
K               -72.34     1.06     73.40    0.000e+00           0   0.000e+00
K-Feldspar           Element not present.    0.000e+00           0   0.000e+00
K2O             -87.10    -0.43     86.67    0.000e+00           0   0.000e+00
KAl(SO4)2            Element not present.    0.000e+00           0   0.000e+00
Kalsilite            Element not present.    0.000e+00           0   0.000e+00
Kaolinite            Element not present.    0.000e+00           0   0.000e+00
KerogenC128   -10931.40   113.59  11044.99    0.000e+00           0   0.000e+00
KerogenC292   -27190.53   437.57  27628.10    0.000e+00           0   0.000e+00
KerogenC515   -48735.48   754.06  49489.54    0.000e+00           0   0.000e+00
Kyanite              Element not present.    0.000e+00           0   0.000e+00
Larnite         -41.42    -1.61     39.82    0.000e+00           0   0.000e+00
Laumontite           Element not present.    0.000e+00           0   0.000e+00
Lawrencite      -24.89   -15.31      9.58    0.000e+00           0   0.000e+00
Lawsonite            Element not present.    0.000e+00           0   0.000e+00
Li                   Element not present.    0.000e+00           0   0.000e+00
Lime            -32.45     1.32     33.77    0.000e+00           0   0.000e+00
Linnaeite            Element not present.    0.000e+00           0   0.000e+00
Lizardite       -34.01    -2.28     31.73    0.000e+00           0   0.000e+00
Lopezite             Element not present.    0.000e+00           0   0.000e+00
Magnesiochromite     Element not present.    0.000e+00           0   0.000e+00
Magnesite       -11.64    -9.09      2.55    0.000e+00           0   0.000e+00
Magnetite       -27.42   -15.67     11.76    0.000e+00           0   0.000e+00
Malachite            Element not present.    0.000e+00           0   0.000e+00
Manganosite          Element not present.    0.000e+00           0   0.000e+00
Margarite            Element not present.    0.000e+00           0   0.000e+00
Maximum_Microcline   Element not present.    0.000e+00           0   0.000e+00
Mayenite             Element not present.    0.000e+00           0   0.000e+00
Melanterite     -14.52   -16.98     -2.46    0.000e+00           0   0.000e+00
Merwinite       -73.51    -2.46     71.06    0.000e+00           0   0.000e+00
Mesolite             Element not present.    0.000e+00           0   0.000e+00
Mg             -122.51     4.62    127.12    0.000e+00           0   0.000e+00
MgOHCl          -17.00    -0.37     16.63    0.000e+00           0   0.000e+00
MgSO4            -9.81    -4.42      5.39    0.000e+00           0   0.000e+00
Millerite            Element not present.    0.000e+00           0   0.000e+00
Minnesotaite    -62.71   -48.26     14.45    0.000e+00           0   0.000e+00
Mirabilite       -2.01    -3.63     -1.63    0.000e+00           0   0.000e+00
Mn                   Element not present.    0.000e+00           0   0.000e+00
Mn(OH)2(am)          Element not present.    0.000e+00           0   0.000e+00
MnCl2:2H2O           Element not present.    0.000e+00           0   0.000e+00
MnCl2:4H2O           Element not present.    0.000e+00           0   0.000e+00
MnCl2:H2O            Element not present.    0.000e+00           0   0.000e+00
MnSO4                Element not present.    0.000e+00           0   0.000e+00
Mo                   Element not present.    0.000e+00           0   0.000e+00
Molysite        -24.36    -9.95     14.41    0.000e+00           0   0.000e+00
Monohydrocalcite  -12.66    -9.85      2.81    0.000e+00           0   0.000e+00
Monticellite    -31.59    -0.85     30.74    0.000e+00           0   0.000e+00
Montmor-Ca           Element not present.    0.000e+00           0   0.000e+00
Montmor-K            Element not present.    0.000e+00           0   0.000e+00
Montmor-Mg           Element not present.    0.000e+00           0   0.000e+00
Montmor-Na           Element not present.    0.000e+00           0   0.000e+00
Mordenite            Element not present.    0.000e+00           0   0.000e+00
Morenosite           Element not present.    0.000e+00           0   0.000e+00
Muscovite            Element not present.    0.000e+00           0   0.000e+00
N2(g)            -0.11    -3.22     -3.11    7.800e-01   6.944e-01  -8.561e-02
NH3(g)          -60.17   -58.16      2.02    0.000e+00           0   0.000e+00
NH4-feldspar         Element not present.    0.000e+00           0   0.000e+00
NH4-muscovite        Element not present.    0.000e+00           0   0.000e+00
NH4Cl           -52.14   -51.04      1.10    0.000e+00           0   0.000e+00
NH4HCO3         -59.63   -59.77     -0.13    0.000e+00           0   0.000e+00
NO(g)           -16.88   -15.88      1.00    0.000e+00           0   0.000e+00
NO2(g)          -11.43    -2.59      8.84    0.000e+00           0   0.000e+00
Na              -66.98     2.74     69.72    0.000e+00           0   0.000e+00
Na2CO3          -19.63    -8.22     11.41    0.000e+00           0   0.000e+00
Na2CO3:7H2O     -18.06    -8.28      9.79    0.000e+00           0   0.000e+00
Na2Cr2O7             Element not present.    0.000e+00           0   0.000e+00
Na2CrO4              Element not present.    0.000e+00           0   0.000e+00
Na2O            -66.65     2.94     69.59    0.000e+00           0   0.000e+00
Na2SiO3         -24.00    -1.30     22.71    0.000e+00           0   0.000e+00
Na2U2O7              Element not present.    0.000e+00           0   0.000e+00
NaFeO2          -22.04    -1.15     20.89    0.000e+00           0   0.000e+00
NaUO3                Element not present.    0.000e+00           0   0.000e+00
Nahcolite        -9.46    -9.69     -0.24    0.000e+00           0   0.000e+00
Nantokite            Element not present.    0.000e+00           0   0.000e+00
Natrolite            Element not present.    0.000e+00           0   0.000e+00
Natron          -17.60    -8.30      9.29    0.000e+00           0   0.000e+00
Natrosilite     -23.91    -5.54     18.37    0.000e+00           0   0.000e+00
Nepheline            Element not present.    0.000e+00           0   0.000e+00
Nesquehonite    -14.72    -9.12      5.61    0.000e+00           0   0.000e+00
Ni                   Element not present.    0.000e+00           0   0.000e+00
Ni(OH)2              Element not present.    0.000e+00           0   0.000e+00
Ni2SiO4              Element not present.    0.000e+00           0   0.000e+00
NiCl2                Element not present.    0.000e+00           0   0.000e+00
NiCl2:2H2O           Element not present.    0.000e+00           0   0.000e+00
NiSO4                Element not present.    0.000e+00           0   0.000e+00
NiSO4:6H2O(alpha)    Element not present.    0.000e+00           0   0.000e+00
Nickelbischofite     Element not present.    0.000e+00           0   0.000e+00
Ningyoite            Element not present.    0.000e+00           0   0.000e+00
Niter            -3.64    -4.08     -0.44    0.000e+00           0   0.000e+00
Nontronite-Ca        Element not present.    0.000e+00           0   0.000e+00
Nontronite-K         Element not present.    0.000e+00           0   0.000e+00
Nontronite-Mg        Element not present.    0.000e+00           0   0.000e+00
Nontronite-Na        Element not present.    0.000e+00           0   0.000e+00
O2(g)            -2.27    -5.09     -2.81    2.000e-01           0  -2.000e-01
Okenite         -17.61    -7.18     10.42    0.000e+00           0   0.000e+00
P                    Element not present.    0.000e+00           0   0.000e+00
Paragonite           Element not present.    0.000e+00           0   0.000e+00
Pargasite            Element not present.    0.000e+00           0   0.000e+00
Periclase       -20.18     2.07     22.25    0.000e+00           0   0.000e+00
Petalite             Element not present.    0.000e+00           0   0.000e+00
Phlogopite           Element not present.    0.000e+00           0   0.000e+00
Polydymite           Element not present.    0.000e+00           0   0.000e+00
Portlandite     -22.03     1.31     23.34    0.000e+00           0   0.000e+00
Prehnite             Element not present.    0.000e+00           0   0.000e+00
Pseudowollastonite  -17.37    -2.92     14.44    0.000e+00           0   0.000e+00
Pyridine       -498.25     6.49    504.75    0.000e+00           0   0.000e+00
Pyrite         -231.59  -256.96    -25.37    0.000e+00           0   0.000e+00
Pyrolusite           Element not present.    0.000e+00           0   0.000e+00
Pyrophyllite         Element not present.    0.000e+00           0   0.000e+00
Pyrrhotite     -146.69  -150.38     -3.69    0.000e+00           0   0.000e+00
Quartz            0.00    -4.24     -4.24    0.000e+00   1.314e-04   1.314e-04
Rankinite       -58.20    -4.53     53.67    0.000e+00           0   0.000e+00
Rhodochrosite        Element not present.    0.000e+00           0   0.000e+00
Rhodonite            Element not present.    0.000e+00           0   0.000e+00
Ripidolite           Element not present.    0.000e+00           0   0.000e+00
Rutherfordine        Element not present.    0.000e+00           0   0.000e+00
Rutile               Element not present.    0.000e+00           0   0.000e+00
S               -95.76  -142.49    -46.74    0.000e+00           0   0.000e+00
SO2(g)          -43.61   -43.26      0.34    0.000e+00           0   0.000e+00
Saleeite             Element not present.    0.000e+00           0   0.000e+00
Sanidine_high        Element not present.    0.000e+00           0   0.000e+00
Saponite-Fe-Ca       Element not present.    0.000e+00           0   0.000e+00
Saponite-Fe-K        Element not present.    0.000e+00           0   0.000e+00
Saponite-Fe-Mg       Element not present.    0.000e+00           0   0.000e+00
Saponite-Fe-Na       Element not present.    0.000e+00           0   0.000e+00
Saponite-Mg-Ca       Element not present.    0.000e+00           0   0.000e+00
Saponite-Mg-Fe       Element not present.    0.000e+00           0   0.000e+00
Saponite-Mg-K        Element not present.    0.000e+00           0   0.000e+00
Saponite-Mg-Mg       Element not present.    0.000e+00           0   0.000e+00
Saponite-Mg-Na       Element not present.    0.000e+00           0   0.000e+00
Sc                   Element not present.    0.000e+00           0   0.000e+00
Scacchite            Element not present.    0.000e+00           0   0.000e+00
Schoepite            Element not present.    0.000e+00           0   0.000e+00
Scolecite            Element not present.    0.000e+00           0   0.000e+00
Sepiolite       -48.37   -17.22     31.14    0.000e+00           0   0.000e+00
Si             -153.35     0.84    154.19    0.000e+00           0   0.000e+00
SiO2(am)         -1.37    -4.24     -2.88    0.000e+00           0   0.000e+00
Siderite        -21.57   -21.59     -0.02    0.000e+00           0   0.000e+00
Sillimanite          Element not present.    0.000e+00           0   0.000e+00
Sm                   Element not present.    0.000e+00           0   0.000e+00
Smectite-high-Fe-Mg   Element not present.    0.000e+00           0   0.000e+00
Smectite-low-Fe-Mg   Element not present.    0.000e+00           0   0.000e+00
Smithsonite          Element not present.    0.000e+00           0   0.000e+00
Sphaerocobaltite     Element not present.    0.000e+00           0   0.000e+00
Sphalerite           Element not present.    0.000e+00           0   0.000e+00
Spinel               Element not present.    0.000e+00           0   0.000e+00
Spinel-Co            Element not present.    0.000e+00           0   0.000e+00
Spodumene            Element not present.    0.000e+00           0   0.000e+00
Stilbite             Element not present.    0.000e+00           0   0.000e+00
Strengite            Element not present.    0.000e+00           0   0.000e+00
Sylvite          -3.38    -2.66      0.72    0.000e+00           0   0.000e+00
Talc            -32.63   -10.76     21.87    0.000e+00           0   0.000e+00
Tarapacaite          Element not present.    0.000e+00           0   0.000e+00
Tenorite             Element not present.    0.000e+00           0   0.000e+00
Tephroite            Element not present.    0.000e+00           0   0.000e+00
Th                   Element not present.    0.000e+00           0   0.000e+00
Th(NO3)4:5H2O        Element not present.    0.000e+00           0   0.000e+00
Th(SO4)2             Element not present.    0.000e+00           0   0.000e+00
Th2S3                Element not present.    0.000e+00           0   0.000e+00
Th7S12               Element not present.    0.000e+00           0   0.000e+00
ThCl4                Element not present.    0.000e+00           0   0.000e+00
ThS2                 Element not present.    0.000e+00           0   0.000e+00
Thenardite       -3.21    -3.55     -0.34    0.000e+00           0   0.000e+00
Thermonatrite   -19.34    -8.23     11.11    0.000e+00           0   0.000e+00
Thorianite           Element not present.    0.000e+00           0   0.000e+00
Ti                   Element not present.    0.000e+00           0   0.000e+00
Ti2O3                Element not present.    0.000e+00           0   0.000e+00
Ti3O5                Element not present.    0.000e+00           0   0.000e+00
TiB2                 Element not present.    0.000e+00           0   0.000e+00
TiC                  Element not present.    0.000e+00           0   0.000e+00
TiCl2                Element not present.    0.000e+00           0   0.000e+00
TiCl3                Element not present.    0.000e+00           0   0.000e+00
TiN                  Element not present.    0.000e+00           0   0.000e+00
Titanite             Element not present.    0.000e+00           0   0.000e+00
Tobermorite-11A  -86.02   -18.91     67.11    0.000e+00           0   0.000e+00
Tremolite       -84.31   -20.94     63.37    0.000e+00           0   0.000e+00
Trevorite            Element not present.    0.000e+00           0   0.000e+00
Tridymite        -0.19    -4.24     -4.05    0.000e+00           0   0.000e+00
Troilite       -146.58  -150.38     -3.80    0.000e+00           0   0.000e+00
U                    Element not present.    0.000e+00           0   0.000e+00
U2O2Cl5              Element not present.    0.000e+00           0   0.000e+00
U3S5                 Element not present.    0.000e+00           0   0.000e+00
UC                   Element not present.    0.000e+00           0   0.000e+00
UCl3                 Element not present.    0.000e+00           0   0.000e+00
UCl4                 Element not present.    0.000e+00           0   0.000e+00
UCl6                 Element not present.    0.000e+00           0   0.000e+00
UH3(beta)            Element not present.    0.000e+00           0   0.000e+00
UN                   Element not present.    0.000e+00           0   0.000e+00
UO2(NO3)2            Element not present.    0.000e+00           0   0.000e+00
UO2(NO3)2:6H2O       Element not present.    0.000e+00           0   0.000e+00
UO2(OH)2(beta)       Element not present.    0.000e+00           0   0.000e+00
[...]
   HCO3-           9.557e-10   6.422e-10    -9.020    -9.192    -0.173     24.46
   NaHCO3          3.507e-10   3.507e-10    -9.455    -9.455     0.000      1.80
   MgCO3           2.671e-17   2.671e-17   -16.573   -16.573     0.000    -18.15
   CO3-2           1.156e-17   2.194e-18   -16.937   -17.659    -0.722     -2.25
   CaCO3           9.351e-18   9.351e-18   -17.029   -17.029     0.000    -15.68
   HCOOH           0.000e+00   0.000e+00   -49.142   -49.142     0.000     33.71
   HCOO-           0.000e+00   0.000e+00   -50.802   -50.988    -0.186     26.58
   CH2O            0.000e+00   0.000e+00   -95.879   -95.879     0.000     26.04
   HCN             0.000e+00   0.000e+00  -115.407  -115.407     0.000     44.74
   CO(NH2)2        0.000e+00   0.000e+00  -120.661  -120.661     0.000     44.11
   CN-             0.000e+00   0.000e+00  -122.757  -122.959    -0.202     23.92
   CH3OH           0.000e+00   0.000e+00  -125.005  -125.005     0.000     38.14
   CH3COOH         0.000e+00   0.000e+00  -159.315  -159.315     0.000     51.09
   CH3COO-         0.000e+00   0.000e+00  -161.944  -162.105    -0.161     40.88
   MgCH3COO+       0.000e+00   0.000e+00  -162.444  -162.617    -0.173     25.40
   NaCH3COO        0.000e+00   0.000e+00  -162.684  -162.684     0.000     47.00
   CaCH3COO+       0.000e+00   0.000e+00  -163.609  -163.782    -0.173     29.19
   KCH3COO         0.000e+00   0.000e+00  -164.566  -164.566     0.000    113.36
   FeCH3COO+       0.000e+00   0.000e+00  -174.964  -175.137    -0.173     23.84
   SCN-            0.000e+00   0.000e+00  -204.108  -204.294    -0.186     35.49
   NH4CH3COO       0.000e+00   0.000e+00  -212.460  -212.460     0.000     68.04
   CH3CH2OH        0.000e+00   0.000e+00  -238.276  -238.276     0.000     55.05
   Mg(CH3COO)2     0.000e+00   0.000e+00  -323.830  -323.830     0.000     76.03
   Ca(CH3COO)2     0.000e+00   0.000e+00  -324.601  -324.601     0.000     80.28
   Na(CH3COO)2-    0.000e+00   0.000e+00  -324.896  -325.069    -0.173    101.68
   K(CH3COO)2-     0.000e+00   0.000e+00  -326.949  -327.122    -0.173    114.06
   Fe(CH3COO)2     0.000e+00   0.000e+00  -335.911  -335.911     0.000     74.41
   NH4(CH3COO)2-   0.000e+00   0.000e+00  -374.451  -374.624    -0.173    125.11
   C3H8            0.000e+00   0.000e+00  -381.836  -381.836     0.000     64.06
Ca            1.066e-02
   Ca+2            9.449e-03   2.339e-03    -2.025    -2.631    -0.606    -17.02
   CaSO4           8.958e-04   8.958e-04    -3.048    -3.048     0.000      7.06
   CaCl+           2.445e-04   1.643e-04    -3.612    -3.784    -0.173      6.06
   CaCl2           7.338e-05   7.338e-05    -4.134    -4.134     0.000     31.73
   CaCO3           9.351e-18   9.351e-18   -17.029   -17.029     0.000    -15.68
   CaCH3COO+       0.000e+00   0.000e+00  -163.609  -163.782    -0.173     29.19
   Ca(CH3COO)2     0.000e+00   0.000e+00  -324.601  -324.601     0.000     80.28
Cl(-1)        5.658e-01
   Cl-             5.418e-01   3.401e-01    -0.266    -0.468    -0.202     18.35
   NaCl            1.741e-02   1.741e-02    -1.759    -1.759     0.000     23.25
   MgCl+           5.340e-03   3.588e-03    -2.272    -2.445    -0.173      1.68
   HCl             7.861e-04   7.861e-04    -3.104    -3.104     0.000     -2.30
   CaCl+           2.445e-04   1.643e-04    -3.612    -3.784    -0.173      6.06
   CaCl2           7.338e-05   7.338e-05    -4.134    -4.134     0.000     31.73
   KCl             5.985e-05   5.985e-05    -4.223    -4.223     0.000     37.28
   FeCl+2          5.068e-10   9.622e-11    -9.295   -10.017    -0.722    -15.70
   FeCl+           1.490e-15   1.001e-15   -14.827   -15.000    -0.173      1.47
   FeCl2           1.735e-18   1.735e-18   -17.761   -17.761     0.000     26.61
Cl(1)         4.379e-19
   ClO-            4.379e-19   2.943e-19   -18.359   -18.531    -0.173      1.16
Cl(3)         6.311e-30
   ClO2-           6.311e-30   4.241e-30   -29.200   -29.373    -0.173     22.15
Cl(5)         2.045e-26
   ClO3-           2.045e-26   1.331e-26   -25.689   -25.876    -0.186     36.67
Cl(7)         2.684e-27
   ClO4-           2.684e-27   1.747e-27   -26.571   -26.758    -0.186     42.88
Fe(2)         1.848e-14
   Fe+2            1.699e-14   4.206e-15   -13.770   -14.376    -0.606    -21.48
   FeCl+           1.490e-15   1.001e-15   -14.827   -15.000    -0.173      1.47
   FeCl2           1.735e-18   1.735e-18   -17.761   -17.761     0.000     26.61
   FeOH+           8.457e-23   5.682e-23   -22.073   -22.245    -0.173    -15.76
   FeCH3COO+       0.000e+00   0.000e+00  -174.964  -175.137    -0.173     23.84
   Fe(CH3COO)2     0.000e+00   0.000e+00  -335.911  -335.911     0.000     74.41
Fe(3)         3.712e-08
   Fe+3            3.299e-08   2.860e-09    -7.482    -8.544    -1.062    -30.16
   FeOH+2          3.627e-09   6.885e-10    -8.440    -9.162    -0.722    -21.86
   FeCl+2          5.068e-10   9.622e-11    -9.295   -10.017    -0.722    -15.70
H(0)          0.000e+00
   H2              0.000e+00   0.000e+00   -45.330   -45.261     0.069     24.42
K             1.058e-02
   K+              1.031e-02   6.469e-03    -1.987    -2.189    -0.202      9.29
   KSO4-           2.142e-04   1.439e-04    -3.669    -3.842    -0.173     34.44
   KCl             5.985e-05   5.985e-05    -4.223    -4.223     0.000     37.28
   KHSO4           9.123e-07   9.123e-07    -6.040    -6.040     0.000     52.46
   KCH3COO         0.000e+00   0.000e+00  -164.566  -164.566     0.000    113.36
   K(CH3COO)2-     0.000e+00   0.000e+00  -326.949  -327.122    -0.173    114.06
Mg            5.509e-02
   Mg+2            4.193e-02   1.330e-02    -1.377    -1.876    -0.499    -20.14
   MgSO4           7.817e-03   7.817e-03    -2.107    -2.107     0.000      5.39
   MgCl+           5.340e-03   3.588e-03    -2.272    -2.445    -0.173      1.68
   MgCO3           2.671e-17   2.671e-17   -16.573   -16.573     0.000    -18.15
   MgCH3COO+       0.000e+00   0.000e+00  -162.444  -162.617    -0.173     25.40
   Mg(CH3COO)2     0.000e+00   0.000e+00  -323.830  -323.830     0.000     76.03
N(-3)         0.000e+00
   NH4+            0.000e+00   0.000e+00   -50.354   -50.575    -0.221     18.60
   NH3             0.000e+00   0.000e+00   -58.155   -58.155     0.000     24.24
   HCN             0.000e+00   0.000e+00  -115.407  -115.407     0.000     44.74
   CO(NH2)2        0.000e+00   0.000e+00  -120.661  -120.661     0.000     44.11
   CN-             0.000e+00   0.000e+00  -122.757  -122.959    -0.202     23.92
   SCN-            0.000e+00   0.000e+00  -204.108  -204.294    -0.186     35.49
   NH4CH3COO       0.000e+00   0.000e+00  -212.460  -212.460     0.000     68.04
   NH4(CH3COO)2-   0.000e+00   0.000e+00  -374.451  -374.624    -0.173    125.11
N(0)          1.217e-03
   N2              6.084e-04   6.084e-04    -3.216    -3.216     0.000     32.36
N(3)          1.606e-14
   HNO2            1.499e-14   1.499e-14   -13.824   -13.824     0.000     29.82
   NO2-            1.073e-15   6.733e-16   -14.970   -15.172    -0.202     24.99
N(5)          2.047e-02
   NO3-            2.046e-02   1.284e-02    -1.689    -1.891    -0.202     28.15
   HNO3            5.523e-06   5.523e-06    -5.258    -5.258     0.000     39.13
Na            4.855e-01
   Na+             4.681e-01   3.145e-01    -0.330    -0.502    -0.173     -1.04
   NaCl            1.741e-02   1.741e-02    -1.759    -1.759     0.000     23.25
   NaHCO3          3.507e-10   3.507e-10    -9.455    -9.455     0.000      1.80
   NaHSiO3         7.752e-12   7.752e-12   -11.111   -11.111     0.000     12.18
   NaOH            2.259e-14   2.259e-14   -13.646   -13.646     0.000      3.13
   NaCH3COO        0.000e+00   0.000e+00  -162.684  -162.684     0.000     47.00
   Na(CH3COO)2-    0.000e+00   0.000e+00  -324.896  -325.069    -0.173    101.68
O(0)          1.403e-05
   O2              7.013e-06   8.216e-06    -5.154    -5.085     0.069     29.49
   HCOOH           0.000e+00   0.000e+00   -49.142   -49.142     0.000     33.71
   HCOO-           0.000e+00   0.000e+00   -50.802   -50.988    -0.186     26.58
   S2O6-2          0.000e+00   0.000e+00   -59.287   -60.057    -0.770     42.30
   CH2O            0.000e+00   0.000e+00   -95.879   -95.879     0.000     26.04
   HCN             0.000e+00   0.000e+00  -115.407  -115.407     0.000     44.74
   CN-             0.000e+00   0.000e+00  -122.757  -122.959    -0.202     23.92
   CH3OH           0.000e+00   0.000e+00  -125.005  -125.005     0.000     38.14
   S3O6-2          0.000e+00   0.000e+00  -156.519  -157.289    -0.770     43.77
   CH3COOH         0.000e+00   0.000e+00  -159.315  -159.315     0.000     51.09
   CH3COO-         0.000e+00   0.000e+00  -161.944  -162.105    -0.161     40.88
   MgCH3COO+       0.000e+00   0.000e+00  -162.444  -162.617    -0.173     25.40
   NaCH3COO        0.000e+00   0.000e+00  -162.684  -162.684     0.000     47.00
   CaCH3COO+       0.000e+00   0.000e+00  -163.609  -163.782    -0.173     29.19
   KCH3COO         0.000e+00   0.000e+00  -164.566  -164.566     0.000    113.36
   FeCH3COO+       0.000e+00   0.000e+00  -174.964  -175.137    -0.173     23.84
   NH4CH3COO       0.000e+00   0.000e+00  -212.460  -212.460     0.000     68.04
   S4O6-2          0.000e+00   0.000e+00  -237.480  -238.250    -0.770     58.07
   CH3CH2OH        0.000e+00   0.000e+00  -238.276  -238.276     0.000     55.05
   Mg(CH3COO)2     0.000e+00   0.000e+00  -323.830  -323.830     0.000     76.03
   Ca(CH3COO)2     0.000e+00   0.000e+00  -324.601  -324.601     0.000     80.28
   Na(CH3COO)2-    0.000e+00   0.000e+00  -324.896  -325.069    -0.173    101.68
   K(CH3COO)2-     0.000e+00   0.000e+00  -326.949  -327.122    -0.173    114.06
   Fe(CH3COO)2     0.000e+00   0.000e+00  -335.911  -335.911     0.000     74.41
   S5O6-2          0.000e+00   0.000e+00  -347.956  -348.726    -0.770     47.29
   NH4(CH3COO)2-   0.000e+00   0.000e+00  -374.451  -374.624    -0.173    125.11
   C3H8            0.000e+00   0.000e+00  -381.836  -381.836     0.000     64.06
S(-2)         0.000e+00
   H2S             0.000e+00   0.000e+00  -132.807  -132.807     0.000     37.12
   HS-             0.000e+00   0.000e+00  -137.795  -137.981    -0.186     20.69
   SCN-            0.000e+00   0.000e+00  -204.108  -204.294    -0.186     35.49
   S2-2            0.000e+00   0.000e+00  -243.129  -243.899    -0.770     22.49
   S3-2            0.000e+00   0.000e+00  -337.831  -338.601    -0.770     31.32
   S4-2            0.000e+00   0.000e+00  -432.765  -433.535    -0.770     40.04
   S5-2            0.000e+00   0.000e+00  -527.924  -528.694    -0.770     48.77
S(2)          0.000e+00
   S2O3-2          0.000e+00   0.000e+00  -136.843  -137.613    -0.770     29.54
S(3)          0.000e+00
   S2O4-2          0.000e+00   0.000e+00  -123.708  -124.387    -0.679     30.92
S(4)          0.000e+00
   HSO3-           0.000e+00   0.000e+00   -42.899   -43.071    -0.173     40.70
   SO2             0.000e+00   0.000e+00   -43.262   -43.262     0.000     37.02
   SO3-2           0.000e+00   0.000e+00   -47.548   -48.270    -0.722     -0.37
   S2O6-2          0.000e+00   0.000e+00   -59.287   -60.057    -0.770     42.30
   S3O6-2          0.000e+00   0.000e+00  -156.519  -157.289    -0.770     43.77
   S4O6-2          0.000e+00   0.000e+00  -237.480  -238.250    -0.770     58.07
   S5O6-2          0.000e+00   0.000e+00  -347.956  -348.726    -0.770     47.29
S(5)          0.000e+00
   S2O5-2          0.000e+00   0.000e+00   -90.173   -90.943    -0.770     35.92
S(6)          2.927e-02
   SO4-2           1.693e-02   2.876e-03    -1.771    -2.541    -0.770     15.56
   MgSO4           7.817e-03   7.817e-03    -2.107    -2.107     0.000      5.39
   HSO4-           3.410e-03   2.291e-03    -2.467    -2.640    -0.173     40.08
   CaSO4           8.958e-04   8.958e-04    -3.048    -3.048     0.000      7.06
   KSO4-           2.142e-04   1.439e-04    -3.669    -3.842    -0.173     34.44
   KHSO4           9.123e-07   9.123e-07    -6.040    -6.040     0.000     52.46
S(7)          6.921e-35
   S2O8-2          3.460e-35   5.877e-36   -34.461   -35.231    -0.770     80.16
S(8)          9.694e-26
   HSO5-           9.694e-26   6.514e-26   -25.013   -25.186    -0.173     49.81
Si            5.721e-05
   SiO2            5.721e-05   5.721e-05    -4.243    -4.243     0.000     17.09
   NaHSiO3         7.752e-12   7.752e-12   -11.111   -11.111     0.000     12.18
   HSiO3-          6.388e-13   4.292e-13   -12.195   -12.367    -0.173      5.39

------------------------------Saturation indices-------------------------------

  Phase               SI** log IAP   log K(288 K,   1 atm)

  [(6)(CB)(CB)S] -103.03    -38.18   64.86  S
  [(aro)-O-(aro)]  18.72     -2.54  -21.26  O
  Afwillite       -66.46     -4.56   61.90  Ca3Si2O4(OH)6
  Akermanite      -50.77     -3.77   47.00  Ca2MgSi2O7
  Andradite       -49.03    -14.01   35.02  Ca3Fe2(SiO4)3
  Anhydrite        -0.94     -5.17   -4.24  CaSO4
  Anthophyllite   -88.83    -19.43   69.40  Mg7Si8O22(OH)2
  Antigorite     -541.19    -44.98  496.21  Mg48Si34O85(OH)62
  Aragonite       -11.98     -9.84    2.13  CaCO3
  Arcanite         -4.93     -6.92   -1.99  K2SO4
  Artinite        -27.49     -7.05   20.44  Mg2CO3(OH)2:3H2O
  Bassanite        -1.59     -5.18   -3.59  CaSO4:0.5H2O
  Brucite         -14.91      2.06   16.97  Mg(OH)2
  C               -72.64     -6.08   66.56  C
  C2H4(g)        -243.42   -245.62   -2.20  C2H4
  C2H6(g)        -264.02   -266.82   -2.80  C2H6
  C3H8(g)        -379.03   -381.84   -2.80  C3H8
  Ca             -141.05      3.86  144.91  Ca
  Calcite         -11.83     -9.84    1.99  CaCO3
  CH4(g)         -147.67   -150.42   -2.75  CH4
  Chalcedony       -0.28     -4.24   -3.96  SiO2
  Chloromagnesite -25.61     -2.81   22.80  MgCl2
  Chrysotile      -34.65     -2.28   32.37  Mg3Si2O5(OH)4
  CO(g)           -49.07    -51.99   -2.92  CO
  CO2(g)           -3.40    -11.16   -7.76  CO2	 Pressure   0.0 atm, phi 1.000
  Coesite          -0.84     -4.24   -3.41  SiO2
  Cristobalite(alpha)  -0.57     -4.24   -3.67  SiO2
  Cristobalite(beta)  -1.05     -4.24   -3.20  SiO2
  Cronstedtite-7A -48.04    -30.35   17.69  Fe2Fe2SiO5(OH)4
  Dicalcium_silicate -40.07     -1.61   38.46  Ca2SiO4
  Diopside        -26.79     -5.09   21.69  CaMgSi2O6
  Dolomite        -21.78    -18.93    2.85  CaMg(CO3)2
  Dolomite-dis    -23.40    -18.93    4.46  CaMg(CO3)2
  Dolomite-ord    -21.77    -18.93    2.84  CaMg(CO3)2
  Enstatite       -13.96     -2.17   11.79  MgSiO3
  Fayalite        -45.09    -25.10   19.99  Fe2SiO4
  Fe              -69.20     -7.88   61.31  Fe
  Fe(OH)2         -24.92    -10.44   14.49  Fe(OH)2
  Fe(OH)3          -8.79     -2.63    6.16  Fe(OH)3
  Fe2(SO4)3       -29.30    -24.71    4.59  Fe2(SO4)3
  FeO             -24.61    -10.43   14.18  FeO
  Ferrite-Ca      -27.05     -3.92   23.13  CaFe2O4
  Ferrite-Dicalcium -62.34     -2.60   59.74  Ca2Fe2O5
  Ferrite-Mg      -25.92     -3.16   22.75  MgFe2O4
  Ferrosilite     -22.42    -14.67    7.75  FeSiO3
  FeSO4           -19.98    -16.92    3.06  FeSO4
  Forsterite      -29.17     -0.10   29.07  Mg2SiO4
  Foshagite       -75.47     -7.47   68.00  Ca4Si3O9(OH)2:0.5H2O
  Goethite         -3.54     -2.62    0.91  FeOOH
  Greenalite      -63.37    -39.78   23.59  Fe3Si2O5(OH)4
  Gypsum           -0.67     -5.19   -4.52  CaSO4:2H2O
  Gyrolite        -33.40    -10.11   23.29  Ca2Si3O7(OH)2:1.5H2O
  H2(g)           -42.19    -45.26   -3.07  H2
  H2O(g)           -1.87     -0.01    1.86  H2O
  H2S(g)         -131.94   -139.96   -8.02  H2S
  Halite           -2.51     -0.97    1.54  NaCl
  Hatrurite       -76.32     -0.29   76.03  Ca3SiO5
  Hedenbergite    -37.87    -17.59   20.28  CaFe(SiO3)2
  Hematite         -6.11     -5.24    0.88  Fe2O3
  Hillebrandite   -39.64     -1.62   38.02  Ca2SiO3(OH)2:0.17H2O
  Huntite         -48.40    -37.11   11.28  CaMg3(CO3)4
  Hydromagnesite  -66.94    -34.33   32.61  Mg5(CO3)4(OH)2:4H2O
  Hydrophilite    -15.82     -3.57   12.25  CaCl2
  Ice              -0.11     -0.01    0.10  H2O
  Jarosite        -12.83    -21.08   -8.25  KFe3(SO4)2(OH)6
  K               -72.34      1.06   73.40  K
  K2O             -87.10     -0.43   86.67  K2O
  KerogenC128    -10931.40    113.5911044.99  C128H68O7
  KerogenC292    -27190.53    437.5727628.10  C292H288O12
  KerogenC515    -48735.48    754.0649489.54  C515H596O72
  Larnite         -41.42     -1.61   39.82  Ca2SiO4
  Lawrencite      -24.89    -15.31    9.58  FeCl2
  Lime            -32.45      1.32   33.77  CaO
  Lizardite       -34.01     -2.28   31.73  Mg3Si2O5(OH)4
  Magnesite       -11.64     -9.09    2.55  MgCO3
  Magnetite       -27.42    -15.67   11.76  Fe3O4
  Melanterite     -14.52    -16.98   -2.46  FeSO4:7H2O
  Merwinite       -73.51     -2.46   71.06  MgCa3(SiO4)2
  Mg             -122.51      4.62  127.12  Mg
  MgOHCl          -17.00     -0.37   16.63  MgOHCl
  MgSO4            -9.81     -4.42    5.39  MgSO4
  Minnesotaite    -62.71    -48.26   14.45  Fe3Si4O10(OH)2
  Mirabilite       -2.01     -3.63   -1.63  Na2SO4:10H2O
  Molysite        -24.36     -9.95   14.41  FeCl3
  Monohydrocalcite -12.66     -9.85    2.81  CaCO3:H2O
  Monticellite    -31.59     -0.85   30.74  CaMgSiO4
  N2(g)            -0.11     -3.22   -3.11  N2	 Pressure   0.8 atm, phi 1.000
  Na              -66.98      2.74   69.72  Na
  Na2CO3          -19.63     -8.22   11.41  Na2CO3
  Na2CO3:7H2O     -18.06     -8.28    9.79  Na2CO3:7H2O
  Na2O            -66.65      2.94   69.59  Na2O
  Na2SiO3         -24.00     -1.30   22.71  Na2SiO3
  NaFeO2          -22.04     -1.15   20.89  NaFeO2
  Nahcolite        -9.46     -9.69   -0.24  NaHCO3
  Natron          -17.60     -8.30    9.29  Na2CO3:10H2O
  Natrosilite     -23.91     -5.54   18.37  Na2Si2O5
  Nesquehonite    -14.72     -9.12    5.61  MgCO3:3H2O
  NH3(g)          -60.17    -58.16    2.02  NH3
  NH4Cl           -52.14    -51.04    1.10  NH4Cl
  NH4HCO3         -59.63    -59.77   -0.13  NH4HCO3
  Niter            -3.64     -4.08   -0.44  KNO3
  NO(g)           -16.88    -15.88    1.00  NO
  NO2(g)          -11.43     -2.59    8.84  NO2
  O2(g)            -2.27     -5.09   -2.81  O2
  Okenite         -17.61     -7.18   10.42  CaSi2O4(OH)2:H2O
  Periclase       -20.18      2.07   22.25  MgO
  Portlandite     -22.03      1.31   23.34  Ca(OH)2
  Pseudowollastonite -17.37     -2.92   14.44  CaSiO3
  Pyridine       -498.25      6.49  504.75  C5H5N
  Pyrite         -231.59   -256.96  -25.37  FeS2
  Pyrrhotite     -146.69   -150.38   -3.69  FeS
  Quartz            0.00     -4.24   -4.24  SiO2
  Rankinite       -58.20     -4.53   53.67  Ca3Si2O7
  S               -95.76   -142.49  -46.74  S
  Sepiolite       -48.37    -17.22   31.14  Mg4Si6O15(OH)2:6H2O
  Si             -153.35      0.84  154.19  Si
  Siderite        -21.57    -21.59   -0.02  FeCO3
  SiO2(am)         -1.37     -4.24   -2.88  SiO2
  SO2(g)          -43.61    -43.26    0.34  SO2
  Sylvite          -3.38     -2.66    0.72  KCl
  Talc            -32.63    -10.76   21.87  Mg3Si4O10(OH)2
  Thenardite       -3.21     -3.55   -0.34  Na2SO4
  Thermonatrite   -19.34     -8.23   11.11  Na2CO3:H2O
  Tobermorite-11A -86.02    -18.91   67.11  Ca5Si6H11O22.5
  Tremolite       -84.31    -20.94   63.37  Ca2Mg5Si8O22(OH)2
  Tridymite        -0.19     -4.24   -4.05  SiO2
  Troilite       -146.58   -150.38   -3.80  FeS
  Wollastonite    -17.11     -2.92   14.19  CaSiO3
  Wustite         -22.08     -9.05   13.04  Fe.947O
  Xonotlite      -112.27    -17.55   94.72  Ca6Si6O17(OH)2

**For a gas, SI = log10(fugacity). Fugacity = pressure * phi / 1 atm.
  For ideal gases, phi = 1.

------------------
End of simulation.
------------------

------------------------------------
Reading input data for simulation 2.
------------------------------------

---------------------------------
End of Run after 0.05652 Seconds.
---------------------------------

